/*---------------------------------------------------------------------------*\
| =========                 |                                                 |
| \\      /  F ield         | OpenFOAM: The Open Source CFD Toolbox           |
|  \\    /   O peration     | Version:  v2006                                 |
|   \\  /    A nd           | Website:  www.openfoam.com                      |
|    \\/     M anipulation  |                                                 |
\*---------------------------------------------------------------------------*/
FoamFile
{
    version     2.0;
    format      ascii;
    class       dictionary;
    location    "constant";
    object      waveProperties;
}
// * * * * * * * * * * * * * * * * * * * * * * * * * * * * * * * * * * * * * //

INLET
{

    alpha            alpha.water;

    waveModel        irregularMultiDirectional;

    nPaddle          1;

    rampTime         2.0;

    activeAbsorption yes;

    wavePeriods
    500
    (
(2.468260053622327)
(2.4609090567047303)
(2.453601715397469)
(2.4463376419633365)
(2.439116453243271)
(2.4319377705889895)
(2.4248012197968003)
(2.4177064310425798)
(2.41065303881789)
(2.4036406818672083)
(2.3966690031262488)
(2.3897376496613574)
(2.382846272609952)
(2.3759945271219927)
(2.369182072302458)
(2.362408571154807)
(2.355673690525409)
(2.348977101048925)
(2.3423184770946075)
(2.3356974967135256)
(2.32911384158667)
(2.3225671969739414)
(2.3160572516639917)
(2.309583697924908)
(2.3031462314557243)
(2.2967445513387372)
(2.2903783599926175)
(2.2840473631262976)
(2.277751269693624)
(2.271489791848757)
(2.2652626449023)
(2.259069547278155)
(2.252910220471081)
(2.2467843890049415)
(2.240691780391637)
(2.234632125090701)
(2.228605156469549)
(2.22261061076437)
(2.21664822704165)
(2.210717747160307)
(2.2048189157344393)
(2.198951480096663)
(2.193115190262037)
(2.187309798892559)
(2.181535061262224)
(2.175790735222636)
(2.1700765811691607)
(2.16439236200761)
(2.15873784312145)
(2.153112792339518)
(2.1475169799042506)
(2.141950178440396)
(2.136412162924219)
(2.1309027106531797)
(2.125421601216081)
(2.1199686164636757)
(2.1145435404797217)
(2.1091461595524876)
(2.103776262146685)
(2.0984336388758353)
(2.093118082475053)
(2.087829387774243)
(2.082567351671701)
(2.077331773108117)
(2.0721224530409637)
(2.0669391944192728)
(2.0617818021587904)
(2.0566500831175003)
(2.0515438460715125)
(2.046462901691312)
(2.041407062518356)
(2.036376142942022)
(2.031369959176893)
(2.0263883292403753)
(2.021431072930649)
(2.016498011804938)
(2.011588969158098)
(2.00670377000152)
(2.001842241042333)
(1.9970042106629171)
(1.992189508900706)
(1.9873979674282845)
(1.9826294195337715)
(1.9778837001014853)
(1.9731606455928852)
(1.9684600940277854)
(1.963781884965838)
(1.9591258594882777)
(1.954491860179928)
(1.9498797311114586)
(1.9452893178218973)
(1.9407204673013856)
(1.9361730279741778)
(1.9316468496818784)
(1.9271417836669145)
(1.922657682556238)
(1.9181944003452556)
(1.9137517923819816)
(1.9093297153514108)
(1.9049280272601081)
(1.9005465874210086)
(1.8961852564384296)
(1.8918438961932873)
(1.8875223698285153)
(1.8832205417346846)
(1.8789382775358174)
(1.874675444075396)
(1.8704319094025608)
(1.866207542758494)
(1.8620022145629918)
(1.8578157964012112)
(1.853648161010602)
(1.8494991822680085)
(1.8453687351769479)
(1.8412566958550574)
(1.8371629415217086)
(1.8330873504857865)
(1.8290298021336326)
(1.8249901769171446)
(1.820968356342037)
(1.8169642229562541)
(1.8129776603385364)
(1.809008553087137)
(1.8050567868086864)
(1.8011222481072022)
(1.7972048245732428)
(1.793304404773202)
(1.7894208782387424)
(1.785554135456367)
(1.7817040678571243)
(1.777870567806447)
(1.7740535285941221)
(1.7702528444243881)
(1.766468410406162)
(1.7627001225433887)
(1.758947877725515)
(1.7552115737180851)
(1.751491109153456)
(1.7477863835216285)
(1.7440972971611974)
(1.7404237512504146)
(1.7367656477983637)
(1.7331228896362485)
(1.729495380408788)
(1.7258830245657217)
(1.7222857273534191)
(1.718703394806595)
(1.7151359337401284)
(1.7115832517409812)
(1.7080452571602198)
(1.704521859105133)
(1.7010129674314487)
(1.6975184927356464)
(1.6940383463473627)
(1.6905724403218936)
(1.6871206874327838)
(1.6836830011645114)
(1.6802592957052578)
(1.676849485939769)
(1.6734534874423006)
(1.6700712164696514)
(1.6667025899542782)
(1.6633475254974968)
(1.6600059413627621)
(1.6566777564690316)
(1.6533628903842068)
(1.6500612633186535)
(1.6467727961188006)
(1.6434974102608135)
(1.6402350278443452)
(1.6369855715863593)
(1.6337489648150276)
(1.6305251314637004)
(1.6273139960649459)
(1.624115483744663)
(1.6209295202162604)
(1.617756031774906)
(1.6145949452918436)
(1.611446188208774)
(1.6083096885323058)
(1.6051853748284661)
(1.6020731762172784)
(1.598973022367403)
(1.5958848434908377)
(1.592808570337682)
(1.5897441341909606)
(1.586691466861506)
(1.583650500682902)
(1.5806211685064824)
(1.5776034036963897)
(1.5745971401246885)
(1.5716023121665352)
(1.5686188546954034)
(1.5656467030783616)
(1.5626857931714075)
(1.5597360613148525)
(1.5567974443287593)
(1.5538698795084314)
(1.550953304619953)
(1.5480476578957787)
(1.5451528780303736)
(1.5422689041759012)
(1.5393956759379601)
(1.5365331333713679)
(1.533681216975993)
(1.5308398676926314)
(1.52800902689893)
(1.5251886364053548)
(1.5223786384512041)
(1.5195789757006655)
(1.5167895912389149)
(1.5140104285682618)
(1.5112414316043334)
(1.5084825446723016)
(1.5057337125031527)
(1.5029948802299957)
(1.5002659933844125)
(1.4975469978928464)
(1.4948378400730307)
(1.4921384666304556)
(1.489448824654874)
(1.4867688616168444)
(1.4840985253643098)
(1.4814377641192167)
(1.4787865264741673)
(1.4761447613891086)
(1.4735124181880581)
(1.4708894465558622)
(1.4682757965349909)
(1.4656714185223665)
(1.4630762632662249)
(1.4604902818630112)
(1.4579134257543083)
(1.4553456467237962)
(1.452786896894246)
(1.4502371287245435)
(1.4476962950067451)
(1.4451643488631647)
(1.4426412437434892)
(1.4401269334219278)
(1.4376213719943873)
(1.4351245138756792)
(1.432636313796755)
(1.4301567268019704)
(1.4276857082463779)
(1.425223213793047)
(1.4227691994104124)
(1.4203236213696504)
(1.4178864362420802)
(1.4154576008965942)
(1.413037072497113)
(1.4106248085000677)
(1.4082207666519064)
(1.405824904986629)
(1.4034371818233424)
(1.4010575557638463)
(1.3986859856902385)
(1.396322430762548)
(1.3939668504163898)
(1.3916192043606446)
(1.3892794525751615)
(1.3869475553084842)
(1.384623473075599)
(1.3823071666557072)
(1.3799985970900177)
(1.3776977256795642)
(1.375404513983041)
(1.3731189238146637)
(1.3708409172420484)
(1.3685704565841148)
(1.3663075044090065)
(1.3640520235320357)
(1.3618039770136456)
(1.3595633281573938)
(1.3573300405079554)
(1.3551040778491468)
(1.3528854042019667)
(1.3506739838226587)
(1.348469781200791)
(1.3462727610573564)
(1.344082888342889)
(1.341900128235602)
(1.3397244461395401)
(1.3375558076827532)
(1.3353941787154857)
(1.3332395253083837)
(1.3310918137507206)
(1.3289510105486377)
(1.3268170824234047)
(1.3246899963096936)
(1.3225697193538724)
(1.3204562189123126)
(1.3183494625497139)
(1.3162494180374456)
(1.314156053351903)
(1.312069336672879)
(1.3099892363819525)
(1.3079157210608912)
(1.3058487594900692)
(1.3037883206469016)
(1.3017343737042908)
(1.29968688802909)
(1.2976458331805798)
(1.2956111789089606)
(1.2935828951538566)
(1.291560952042837)
(1.289545319889948)
(1.2875359691942616)
(1.2855328706384344)
(1.2835359950872833)
(1.2815453135863726)
(1.2795607973606136)
(1.2775824178128792)
(1.2756101465226297)
(1.2736439552445527)
(1.271683815907213)
(1.2697297006117183)
(1.2677815816303952)
(1.265839431405477)
(1.2639032225478053)
(1.2619729278355414)
(1.2600485202128913)
(1.2581299727888415)
(1.2562172588359066)
(1.254310351788887)
(1.2524092252436407)
(1.2505138529558637)
(1.2486242088398822)
(1.2467402669674563)
(1.2448620015665937)
(1.2429893870203752)
(1.241122397865789)
(1.239261008792578)
(1.237405194642094)
(1.2355549304061673)
(1.2337101912259796)
(1.231870952390954)
(1.230037189337649)
(1.2282088776486675)
(1.2263859930515713)
(1.2245685114178069)
(1.2227564087616423)
(1.2209496612391102)
(1.2191482451469637)
(1.2173521369216387)
(1.2155613131382264)
(1.2137757505094555)
(1.211995425884683)
(1.2102203162488927)
(1.2084503987217043)
(1.2066856505563899)
(1.2049260491388996)
(1.2031715719868956)
(1.2014221967487948)
(1.1996779012028196)
(1.1979386632560562)
(1.1962044609435234)
(1.1944752724272463)
(1.192751075995341)
(1.1910318500611043)
(1.189317573162115)
(1.1876082239593386)
(1.1859037812362432)
(1.1842042238979211)
(1.1825095309702192)
(1.180819681598875)
(1.1791346550486625)
(1.1774544307025434)
(1.175778988060826)
(1.1741083067403324)
(1.1724423664735708)
(1.1707811471079166)
(1.1691246286047998)
(1.1674727910388991)
(1.1658256145973425)
(1.1641830795789163)
(1.1625451663932789)
(1.1609118555601814)
(1.1592831277086966)
(1.1576589635764523)
(1.1560393440088723)
(1.1544242499584232)
(1.1528136624838674)
(1.1512075627495237)
(1.1496059320245318)
(1.148008751682125)
(1.1464160031989075)
(1.1448276681541387)
(1.143243728229023)
(1.1416641652060056)
(1.1400889609680736)
(1.1385180974980638)
(1.1369515568779758)
(1.1353893212882906)
(1.1338313730072949)
(1.1322776944104105)
(1.1307282679695307)
(1.129183076252361)
(1.1276421019217637)
(1.126105327735112)
(1.1245727365436453)
(1.1230443112918311)
(1.1215200350167336)
(1.1199998908473847)
(1.1184838620041633)
(1.1169719317981754)
(1.1154640836306449)
(1.1139603009923034)
(1.1124605674627885)
(1.1109648667100476)
(1.1094731824897424)
(1.1079854986446631)
(1.106501799104144)
(1.1050220678834846)
(1.1035462890833765)
(1.1020744468893329)
(1.1006065255711246)
(1.0991425094822187)
(1.0976823830592235)
(1.0962261308213368)
(1.0947737373697983)
(1.0933251873873473)
(1.0918804656376844)
(1.0904395569649366)
(1.0890024462931278)
(1.0875691186256533)
(1.0861395590447573)
(1.0847137527110162)
(1.0832916848628247)
(1.0818733408158865)
(1.0804587059627084)
(1.0790477657720998)
(1.0776405057886744)
(1.0762369116323565)
(1.0748369689978916)
(1.07344066365436)
(1.0720479814446955)
(1.070658908285205)
(1.0692734301650961)
(1.0678915331460042)
(1.0665132033615263)
(1.0651384270167565)
(1.063767190387826)
(1.0623994798214462)
(1.0610352817344562)
(1.059674582613372)
(1.0583173690139418)
(1.0569636275607017)
(1.0556133449465377)
(1.0542665079322482)
(1.0529231033461126)
(1.0515831180834612)
(1.0502465391062494)
(1.048913353442635)
(1.0475835481865572)
(1.0462571104973224)
(1.044934027599189)
(1.0436142867809581)
(1.0422978753955665)
(1.040984780859682)
(1.039674990653303)
(1.0383684923193608)
(1.037065273463324)
(1.0357653217528073)
(1.034468624917182)
(1.0331751707471895)
(1.0318849470945595)
(1.0305979418716282)
(1.0293141430509616)
(1.0280335386649804)
(1.026756116805589)
(1.025481865623805)
(1.024210773329394)
(1.0229428281905055)
(1.0216780185333123)
(1.0204163327416513)
(1.0191577592566692)
(1.0179022865764684)
(1.0166499032557572)
(1.015400597905502)
(1.014154359192582)
(1.0129111758394458)
(1.0116710366237724)
(1.0104339303781331)
(1.009199845989656)
(1.007968772399693)
(1.0067406986034904)
(1.00551561364986)
(1.0042935066408547)
(1.0030743667314441)
(1.0018581831291944)
(1.0006449450939499)
(0.9994346419375169)
(0.9982272630233494)
(0.9970227977662381)
(0.9958212356320008)
(0.9946225661371747)
(0.9934267788487127)
(0.9922338633836798)
(0.9910438094089529)
    );

    waveHeights
    500
    (
(0.0016981879890570158)
(0.0017327913027585387)
(0.001767417013878221)
(0.001802051340570955)
(0.0018366806912912285)
(0.0018712916751014834)
(0.0019058711113070278)
(0.0019404060384280368)
(0.001974883722520383)
(0.0020092916648579416)
(0.00204361760899012)
(0.0020778495471890333)
(0.0021119757263015656)
(0.0021459846530222037)
(0.0021798650986029943)
(0.0022136061030175423)
(0.002247196978596259)
(0.002280627313150435)
(0.0023138869726029494)
(0.0023469661031435157)
(0.0023798551329266083)
(0.002412544773330123)
(0.002445026019792893)
(0.002477290152249148)
(0.0025093287351778126)
(0.002541133617284471)
(0.00257269693083364)
(0.0026040110906486876)
(0.0026350687927966156)
(0.0026658630129745148)
(0.0026963870046142605)
(0.002726634296721716)
(0.0027565986914662405)
(0.0027862742615360936)
(0.0028156553472747873)
(0.002844736553613133)
(0.002873512746811327)
(0.0029019790510249046)
(0.002930130844708098)
(0.0029579637568675995)
(0.002985473663179331)
(0.0030126566819804394)
(0.0030395091701481683)
(0.003066027718876984)
(0.003092209149364755)
(0.0031180505084184317)
(0.003143549063989251)
(0.0031687023006469897)
(0.003193507915002459)
(0.0032179638110869887)
(0.0032420680956971996)
(0.003265819073713061)
(0.0032892152433967284)
(0.0033122552916793674)
(0.003334938089442753)
(0.003357262686802059)
(0.003379228308395954)
(0.0034008343486896914)
(0.0034220803672966147)
(0.0034429660843231812)
(0.0034634913757422034)
(0.0034836562687988186)
(0.003503460937453315)
(0.003522905697864692)
(0.003541991003918591)
(0.0035607174428028835)
(0.0035790857306340256)
(0.0035970967081370457)
(0.0036147513363816975)
(0.0036320506925772472)
(0.0036489959659279786)
(0.0036655884535514187)
(0.0036818295564610476)
(0.0036977207756150226)
(0.003713263708032362)
(0.003728460042977769)
(0.0037433115582161626)
(0.0037578201163378476)
(0.0037719876611550236)
(0.003785816214170317)
(0.003799307871117759)
(0.003812464798576607)
(0.0038252892306582537)
(0.0038377834657663144)
(0.0038499498634299834)
(0.003861790841210524)
(0.0038733088716807608)
(0.003884506479477336)
(0.003895386238425358)
(0.0039059507687350596)
(0.003916202734270008)
(0.003926144839886264)
(0.0039357798288419555)
(0.003945110480276555)
(0.003954139606759158)
(0.003962870051905042)
(0.003971304688059629)
(0.003979446414049086)
(0.003987298152996624)
(0.003994862850203615)
(0.004002143471094585)
(0.004009142999225086)
(0.004015864434351486)
(0.004022310790561665)
(0.004028485094465537)
(0.004034390383444435)
(0.0040400297039582134)
(0.004045406109909055)
(0.004050522661060891)
(0.00405538242151332)
(0.00405998845822898)
(0.004064343839613252)
(0.004068451634145184)
(0.004072314909058594)
(0.004075936729072199)
(0.0040793201551677215)
(0.0040824682434148635)
(0.004085384043842066)
(0.00408807059935202)
(0.004090530944680785)
(0.00409276810539954)
(0.004094785096957859)
(0.004096584923767499)
(0.004098170578325658)
(0.004099545040376711)
(0.0041007112761113785)
(0.0041016722374023805)
(0.004102430861075565)
(0.004102990068215564)
(0.004103352763505018)
(0.004103521834596425)
(0.004103500151515722)
(0.004103290566096662)
(0.004102895911445093)
(0.004102319001432303)
(0.004101562630216533)
(0.004100629571791805)
(0.004099522579563285)
(0.004098244385948337)
(0.004096797702002446)
(0.004095185217069292)
(0.004093409598454156)
(0.004091473491119943)
(0.0040893795174050595)
(0.00408713027676246)
(0.004084728345519148)
(0.004082176276655434)
(0.004079476599603301)
(0.004076631820063225)
(0.004073644419838775)
(0.004070516856688433)
(0.004067251564193952)
(0.004063850951644733)
(0.004060317403937575)
(0.004056653281491274)
(0.00405286092017553)
(0.0040489426312535675)
(0.004044900701338026)
(0.004040737392359561)
(0.0040364549415476585)
(0.004032055561423226)
(0.004027541439802441)
(0.004022914739811429)
(0.00401817759991133)
(0.004013332133933308)
(0.0040083804311231005)
(0.004003324556194682)
(0.0039981665493926824)
(0.003992908426563127)
(0.003987552179232173)
(0.003982099774692458)
(0.00397655315609671)
(0.003970914242558288)
(0.003965184929258319)
(0.003959367087559114)
(0.003953462565123551)
(0.003947473186040132)
(0.003941400750953408)
(0.003935247037199524)
(0.003929013798946561)
(0.003922702767339464)
(0.003916315650649274)
(0.003909854134426409)
(0.003903319881657784)
(0.0038967145329275197)
(0.0038900397065810164)
(0.003883296998892194)
(0.0038764879842336686)
(0.003869614215249695)
(0.00386267722303164)
(0.003855678517295843)
(0.0038486195865636602)
(0.0038415018983435174)
(0.003834326899314811)
(0.0038270960155135053)
(0.003819810652519245)
(0.0038124721956438556)
(0.003805082010121089)
(0.0037976414412974465)
(0.003790151814823989)
(0.003782614436848969)
(0.0037750305942111867)
(0.0037674015546339304)
(0.003759728566919407)
(0.003752012861143546)
(0.0037442556488510607)
(0.003736458123250689)
(0.003728621459410502)
(0.003720746814453188)
(0.0037128353277512288)
(0.0037048881211218846)
(0.003696906299021908)
(0.0036888909487418934)
(0.003680843140600214)
(0.003672763928136458)
(0.003664654348304301)
(0.003656515421663748)
(0.003648348152572698)
(0.003640153529377746)
(0.0036319325246041965)
(0.0036236860951452178)
(0.003615415182450086)
(0.0036071207127114893)
(0.003598803597051822)
(0.0035904647317084514)
(0.003582104998217895)
(0.0035737252635988847)
(0.0035653263805342818)
(0.0035569091875517936)
(0.003548474509203483)
(0.003540023156244023)
(0.0035315559258076727)
(0.0035230736015839565)
(0.003514576953992011)
(0.0035060667403535874)
(0.003497543705064673)
(0.0034890085797657324)
(0.003480462083510536)
(0.00347190492293356)
(0.0034633377924159488)
(0.0034547613742500257)
(0.0034461763388023282)
(0.0034375833446751718)
(0.0034289830388667237)
(0.003420376056929574)
(0.003411763023127807)
(0.0034031445505925545)
(0.003394521241476036)
(0.003385893687104067)
(0.003377262468127046)
(0.0033686281546694095)
(0.0033599913064775513)
(0.003351352473066206)
(0.003342712193863306)
(0.0033340709983532865)
(0.0033254294062188714)
(0.003316787927481321)
(0.003308147062639143)
(0.0032995073028052797)
(0.0032908691298427716)
(0.003282233016498898)
(0.0032735994265377967)
(0.0032649688148715774)
(0.0032563416276899276)
(0.0032477183025882116)
(0.0032390992686940844)
(0.003230484946792612)
(0.003221875749449911)
(0.003213272081135318)
(0.003204674338342093)
(0.0031960829097066653)
(0.0031874981761264277)
(0.0031789205108760992)
(0.0031703502797226523)
(0.003161787841038815)
(0.003153233545915167)
(0.00314468773827084)
(0.0031361507549628087)
(0.00312762292589382)
(0.0031191045741189396)
(0.00311059601595074)
(0.003102097561063146)
(0.0030936095125939315)
(0.0030851321672459003)
(0.00307666581538674)
(0.00306821074114758)
(0.0030597672225202524)
(0.003051335531453272)
(0.0030429159339465475)
(0.00303450869014483)
(0.0030261140544299257)
(0.003017732275511659)
(0.003009363596517627)
(0.003001008255081739)
(0.0029926664834315493)
(0.0029843385084744162)
(0.002976024551882481)
(0.0029677248301764785)
(0.0029594395548084088)
(0.0029511689322430615)
(0.002942913164038419)
(0.0029346724469249403)
(0.0029264469728837506)
(0.0029182369292237325)
(0.002910042498657544)
(0.0029018638593765684)
(0.002893701185124814)
(0.002885554645271764)
(0.0028774244048842042)
(0.0028693106247970244)
(0.002861213461683021)
(0.0028531330681216974)
(0.002845069592667087)
(0.002837023179914597)
(0.0028289939705669017)
(0.0028209821014988784)
(0.0028129877058216102)
(0.0028050109129454616)
(0.002797051848642239)
(0.0027891106351064523)
(0.0027811873910156743)
(0.0027732822315900286)
(0.002765395268650803)
(0.0027575266106782013)
(0.0027496763628682514)
(0.00274184462718887)
(0.0027340315024351066)
(0.0027262370842835635)
(0.0027184614653460123)
(0.0027107047352222208)
(0.002702966980551982)
(0.002695248285066378)
(0.002687548729638275)
(0.002679868392332061)
(0.002672207348452641)
(0.002664565670593697)
(0.002656943428685218)
(0.002649340690040321)
(0.0026417575194013568)
(0.002634193978985325)
(0.0026266501285285996)
(0.0026191260253309754)
(0.0026116217242990454)
(0.002604137277988917)
(0.0025966727366482775)
(0.002589228148257821)
(0.0025818035585720325)
(0.002574399011159357)
(0.002567014547441746)
(0.0025596502067335987)
(0.0025523060262801025)
(0.0025449820412949842)
(0.002537678284997676)
(0.002530394788649908)
(0.0025231315815917353)
(0.0025158886912770044)
(0.002508666143308267)
(0.0025014639614711546)
(0.0024942821677682177)
(0.002487120782452232)
(0.0024799798240589892)
(0.002472859309439571)
(0.002465759253792123)
(0.0024586796706931226)
(0.0024516205721281607)
(0.0024445819685222385)
(0.002437563868769585)
(0.002430566280263005)
(0.0024235892089227644)
(0.002416632659225016)
(0.0024096966342297766)
(0.0024027811356084625)
(0.00239588616367098)
(0.002389011717392394)
(0.002382157794439166)
(0.0023753243911949756)
(0.0023685115027861268)
(0.002361719123106552)
(0.002354947244842414)
(0.0023481958594963113)
(0.0023414649574110967)
(0.002334754527793312)
(0.002328064558736247)
(0.0023213950372426217)
(0.002314745949246911)
(0.0023081172796372987)
(0.002301509012277282)
(0.0022949211300269247)
(0.0022883536147637637)
(0.002281806447403378)
(0.0022752796079196203)
(0.002268773075364521)
(0.0022622868278878655)
(0.0022558208427564523)
(0.002249375096373038)
(0.002242949564294966)
(0.002236544221252497)
(0.0022301590411668306)
(0.0022237939971678374)
(0.0022174490616114926)
(0.0022111242060970267)
(0.00220481940148379)
(0.002198534617907839)
(0.0021922698247982455)
(0.0021860249908931414)
(0.002179800084255489)
(0.002173595072288593)
(0.0021674099217513535)
(0.0021612445987732654)
(0.0021550990688691627)
(0.0021489732969537222)
(0.0021428672473557185)
(0.0021367808838320423)
(0.0021307141695814844)
(0.002124667067258283)
(0.0021186395389854464)
(0.002112631546367849)
(0.0021066430505051084)
(0.0021006740120042373)
(0.0020947243909920886)
(0.0020887941471275863)
(0.002082883239613745)
(0.0020769916272094873)
(0.0020711192682412614)
(0.0020652661206144547)
(0.0020594321418246145)
(0.00205361728896848)
(0.002047821518754815)
(0.0020420447875150634)
(0.002036287051213817)
(0.002030548265459101)
(0.0020248283855124846)
(0.002019127366299014)
(0.002013445162416972)
(0.0020077817281474717)
(0.002002137017463879)
(0.001996510984041072)
(0.001990903581264538)
(0.00198531476223931)
(0.0019797444797987505)
(0.0019741926865131758)
(0.001968659334698329)
(0.0019631443764237064)
(0.0019576477635207313)
(0.0019521694475907892)
(0.0019467093800131148)
(0.0019412675119525411)
(0.0019358437943671094)
(0.0019304381780155435)
(0.0019250506134645899)
(0.0019196810510962252)
(0.001914329441114736)
(0.0019089957335536685)
(0.001903679878282654)
(0.0018983818250141106)
(0.0018931015233098216)
(0.0018878389225873973)
(0.0018825939721266154)
(0.0018773666210756472)
(0.00187215681845717)
(0.0018669645131743659)
(0.0018617896540168114)
(0.001856632189666257)
(0.0018514920687022994)
(0.0018463692396079516)
(0.0018412636507751043)
(0.0018361752505098893)
(0.0018311039870379418)
(0.0018260498085095618)
(0.001821012663004781)
(0.001815992498538333)
(0.001810989263064529)
(0.0018060029044820408)
(0.0018010333706385956)
(0.0017960806093355766)
(0.001791144568332538)
(0.0017862251953516353)
(0.0017813224380819653)
(0.0017764362441838263)
(0.001771566561292895)
(0.0017667133370243195)
(0.0017618765189767365)
(0.0017570560547362066)
(0.0017522518918800735)
(0.0017474639779807473)
(0.0017426922606094129)
(0.001737936687339663)
(0.0017331972057510634)
(0.0017284737634326401)
(0.0017237663079863028)
(0.001719074787030195)
(0.0017143991482019797)
(0.001709739339162055)
(0.001705095307596707)
(0.0017004670012211965)
(0.0016958543677827829)
(0.0016912573550636853)
(0.0016866759108839818)
(0.001682109983104451)
(0.001677559519629349)
    );

    wavePhases
    500
    (
(0.07167607428825147)
(3.721494623369067)
(0.40329703273719986)
(5.250028420638676)
(4.518279344382749)
(2.4081799687664525)
(1.5065940785294494)
(0.8709831609093613)
(4.640609656244537)
(2.4791116043489576)
(1.9644261111765682)
(2.187510791255807)
(0.2209615940917263)
(2.5895683253322614)
(2.811814564867896)
(0.08354202460545095)
(4.1445679908939175)
(2.2454916628976425)
(4.95673906337314)
(1.4043682342300896)
(0.8608060659775585)
(4.511307890019828)
(0.5875879587994411)
(0.20525203014281926)
(3.6706064461502526)
(2.119899596080845)
(2.976351815199997)
(4.130130074275564)
(5.688495821769747)
(2.3469102471975796)
(0.039079436448791194)
(5.975909679463676)
(3.996555887019342)
(5.303602928991684)
(0.3142470236319444)
(5.7846968880200045)
(0.9431445684473166)
(2.390363280939721)
(4.591259076118841)
(4.589322914229275)
(5.80836565577886)
(1.9717792839189974)
(4.999226012321995)
(2.34507379079758)
(2.535501110057312)
(3.5622028871974014)
(3.064963315402548)
(3.1307300507972577)
(0.22820669575855249)
(0.15507962111821186)
(4.24920090999342)
(5.542438510721264)
(2.56901143584525)
(3.46245587787607)
(0.5342428918777098)
(3.578139249667499)
(4.6457004586056225)
(1.2362548499054575)
(6.163172029844635)
(2.882626997972408)
(2.2894916834653314)
(5.402815326376818)
(5.965658621640004)
(5.086162329604912)
(5.038630628614596)
(2.2189872608573165)
(3.863736392768961)
(3.271488746734678)
(4.511343680282951)
(3.9179966551391487)
(5.914140728842031)
(4.1211036077362575)
(4.447898814776137)
(4.126219689133821)
(4.260657961944947)
(1.8448467144026006)
(1.8108087355057887)
(1.7562735952269133)
(1.7852083152740685)
(2.500820598348871)
(5.2349510273884645)
(4.1292232905777215)
(3.5569543589278867)
(1.2289429708437534)
(4.863042415319586)
(4.196473683426406)
(6.220294194656408)
(6.15584600351431)
(3.9061647735522524)
(0.3330524235823187)
(5.34697763920865)
(5.597408732505374)
(2.1987087175411446)
(2.6055010743588323)
(0.19220364074638052)
(3.3174030161968453)
(2.9552269338946404)
(4.300770855351265)
(0.9398839465945044)
(0.22407689176178333)
(3.3119135925628096)
(5.104758256272477)
(5.629588248948696)
(1.4709014638192524)
(4.313980364432419)
(1.2814164954516605)
(4.667111906919779)
(5.482062261771553)
(2.101149232059965)
(0.5121400675564125)
(5.3237741231827584)
(4.207714621003783)
(5.218277761207658)
(0.5678326595177916)
(3.0348929116450805)
(0.6695314687706)
(3.404679078846528)
(5.100130472864577)
(4.528092394354195)
(3.1747902189173636)
(4.5352384098941485)
(4.167019082737054)
(1.9074551038862517)
(1.293896887507019)
(1.393593510908735)
(1.774744897786988)
(2.3779970704143203)
(5.788463340494782)
(1.2382826685612027)
(1.32894355749135)
(4.977742595250241)
(3.9499463330262468)
(5.438888747113905)
(0.6854222103975925)
(4.3025523191647315)
(4.041338111584763)
(5.674184872483296)
(5.524960341435047)
(0.22193959042035968)
(4.428723690068083)
(6.096341229296809)
(0.5151136938977775)
(2.0734720813213694)
(1.0505257833223147)
(1.2432334877060829)
(6.21503070298973)
(1.3888752025530022)
(5.561462585157235)
(3.1219994083621856)
(3.0929766382724067)
(3.1970502933208422)
(4.325879673334544)
(3.0355844953419826)
(2.999402416842333)
(4.434730454790592)
(2.7684357188197266)
(4.060604390104745)
(5.4478095950643795)
(5.891295111825384)
(3.6022609846165716)
(3.5497509188319745)
(0.27154749118972704)
(1.1295859157709833)
(4.764215884282631)
(2.857564182051787)
(5.333247665484089)
(3.4188222848924386)
(5.0986890683659825)
(0.40234579423099087)
(4.007968899238828)
(5.288011888116372)
(3.159733511307335)
(6.140809835752797)
(5.17616923896908)
(3.0217365347980456)
(3.00520346186509)
(3.0893775544682542)
(2.009622221532923)
(3.0323944800190246)
(1.647024448358367)
(0.38973191627811676)
(4.930850260659234)
(1.7911338253815683)
(1.244050656058875)
(2.3422917992521626)
(0.3853422071984901)
(1.3369948758634929)
(0.6055286946056277)
(5.475577950803906)
(2.088537909790384)
(2.5334670422795877)
(5.904119563254686)
(2.867645004961494)
(3.5869959468145556)
(2.004312935695232)
(6.177011224601387)
(0.10486967127651796)
(5.105768223078504)
(1.7817685054237757)
(2.401935387957248)
(2.9797796528157767)
(2.9329067444319357)
(1.7081349921445095)
(2.089419950428488)
(2.0911172914798044)
(4.769536217891433)
(6.268629354262227)
(5.476168654645998)
(4.378195560330815)
(5.03373108977302)
(1.3559909224460518)
(6.111821437418744)
(3.162913911334044)
(3.3210994600137558)
(0.6160133128136961)
(1.9644982246219675)
(4.8753147991926795)
(1.639668221489616)
(2.130936896845402)
(3.379765479311872)
(3.2906394823302434)
(5.200078282482876)
(4.058984313033454)
(5.896766436411486)
(2.1644630917218164)
(1.706594350608914)
(3.067297287893383)
(0.897496272046546)
(4.77186494814382)
(2.3037247974166375)
(2.589020506928018)
(4.654943478524997)
(2.072478178895238)
(4.828405355805612)
(5.914408060871578)
(0.5971186260260787)
(1.328210924328447)
(1.9650756541377743)
(4.792586894503974)
(0.1613195266212488)
(0.3482188319147726)
(0.4033311051984859)
(3.7104072271677815)
(3.6729483176398627)
(0.6319482146658864)
(1.7096697577122328)
(2.6568401971464546)
(2.814599144057354)
(5.99110694582304)
(4.868369125301199)
(3.4061762233099855)
(3.2962965001912385)
(0.6338562318279961)
(2.643807182075254)
(4.031214818925526)
(0.12485268487161719)
(0.45344550499087544)
(5.125769501269303)
(2.902317641235548)
(5.178314827875251)
(1.4504573144060566)
(1.6457228898477263)
(1.453731087638597)
(0.23413606797325956)
(5.064567577961406)
(2.9127701090586045)
(4.668984434871332)
(1.5853616151531205)
(3.947249423590303)
(3.025648827144191)
(5.3191351513283305)
(0.605212473776713)
(5.048031500530266)
(3.032832477325295)
(4.004612585872325)
(0.16564734751162163)
(1.3651037739983525)
(2.2523903051960357)
(4.6458882620494855)
(5.4716556932497715)
(6.116809594418047)
(0.9788765712917662)
(3.7865027961268245)
(2.045224184765027)
(4.608107273664006)
(1.9115655821623665)
(0.10919284428086025)
(0.57184615486824)
(0.7110722591829007)
(2.2411694647108686)
(2.203389598183258)
(4.088985901130174)
(3.957752716383252)
(5.488490035697406)
(4.657052852047309)
(1.2992314165498025)
(2.824802979245825)
(6.213400504962321)
(2.660460326854303)
(5.209801502197296)
(1.2488819620133784)
(0.2791832278544346)
(1.931761719632099)
(0.9472902791521928)
(2.4638412466038577)
(5.6221241384363765)
(0.18667843728908826)
(4.546499710760384)
(1.2571504563512053)
(6.255395492216388)
(2.7833692106167613)
(4.813454638777249)
(0.7617990245551602)
(0.19208971810024775)
(4.284436149668677)
(3.0158373197640933)
(2.7543468521718557)
(3.9553490876670767)
(1.0760298578934093)
(3.411915724969912)
(5.141082164543733)
(4.399928008065543)
(1.5330814456559028)
(0.6643405049873529)
(3.495168677176792)
(1.0643627734051053)
(4.256958572116835)
(2.746986278473466)
(5.141018119527076)
(4.455283187807493)
(0.9515080828859382)
(2.8044587658686195)
(0.048312120227052946)
(1.4379904724350934)