/*--------------------------------*- C++ -*----------------------------------*\
| =========                 |                                                 |
| \\      /  F ield         | OpenFOAM: The Open Source CFD Toolbox           |
|  \\    /   O peration     | Version:  v2012                                 |
|   \\  /    A nd           | Website:  www.openfoam.com                      |
|    \\/     M anipulation  |                                                 |
\*---------------------------------------------------------------------------*/
FoamFile
{
    version     2.0;
    format      ascii;
    class       dictionary;
    object      controlDict;
}
// * * * * * * * * * * * * * * * * * * * * * * * * * * * * * * * * * * * * * //

libs            (overset fvMotionSolvers);

DebugSwitches
{
    overset                 0;
    dynamicOversetFvMesh    0;
    cellVolumeWeight        0;
}

application     overInterDyMFoam;

startFrom       latestTime;

startTime       0.0;

stopAt          endTime;

endTime         1;

deltaT          0.001;

writeControl    adjustable;

writeInterval   0.01;

purgeWrite      0;

writeFormat     ascii;

writePrecision  12;

writeCompression off;

timeFormat      general;

timePrecision   6;

runTimeModifiable yes;

adjustTimeStep  yes;

maxCo           1.5;

maxAlphaCo      2.0;

maxDeltaT       1;

// ************************************************************************* //
