/*--------------------------------*- C++ -*----------------------------------*\
| =========                 |                                                 |
| \\      /  F ield         | OpenFOAM: The Open Source CFD Toolbox           |
|  \\    /   O peration     | Version:  v2012                                 |
|   \\  /    A nd           | Website:  www.openfoam.com                      |
|    \\/     M anipulation  |                                                 |
\*---------------------------------------------------------------------------*/
FoamFile
{
    version     2.0;
    format      ascii;
    class       dictionary;
    object      createPatchDict;
}
// * * * * * * * * * * * * * * * * * * * * * * * * * * * * * * * * * * * * * //

pointSync false;

// Patches to create.
patches
(
    {
        name inlet1;
        patchInfo
        {
            type            patch;
        }
        constructFrom set;
        set inletFaces;
    }
	
	{
        name faucet;
        patchInfo
        {
            type            wall;
        }
        constructFrom set;
        set faucetFaces;
    }
);

// ************************************************************************* //
