/*--------------------------------*- C++ -*----------------------------------*\
| =========                 |                                                 |
| \\      /  F ield         | OpenFOAM: The Open Source CFD Toolbox           |
|  \\    /   O peration     | Version:  v2006                                 |
|   \\  /    A nd           | Website:  www.openfoam.com                      |
|    \\/     M anipulation  |                                                 |
\*---------------------------------------------------------------------------*/
FoamFile
{
    version     2.0;
    format      ascii;
    class       featureEdgeMesh;
    location    "constant/triSurface";
    object      monaco.eMesh;
}
// * * * * * * * * * * * * * * * * * * * * * * * * * * * * * * * * * * * * * //


// points:

102
(
(-32.5797996521 99.4467010498 18.2000007629)
(156.408996582 364.779998779 8)
(149.348007202 356.175994873 8)
(156.408996582 364.779998779 18.2000007629)
(149.348007202 356.175994873 18.2000007629)
(302.312988281 263.311004639 8)
(302.312988281 263.311004639 18.2000007629)
(295.476989746 253.43800354 8)
(295.476989746 253.43800354 18.2000007629)
(160.035995483 347.641998291 8)
(160.035995483 347.641998291 18.2000007629)
(158.623001099 348.562988281 8)
(158.623001099 348.562988281 18.2000007629)
(69.2946014404 239.727996826 8)
(65.8779983521 275.528991699 8)
(57.6551017761 236.343994141 8)
(39.6455993652 251.126998901 8)
(40.6946983337 263.20300293 8)
(56.8885993958 282.869995117 8)
(64.5784988403 276.595001221 8)
(139.024002075 364.649993896 8)
(64.5784988403 276.595001221 18.2000007629)
(56.8885993958 282.869995117 18.2000007629)
(65.8779983521 275.528991699 18.2000007629)
(139.024002075 364.649993896 18.2000007629)
(69.2946014404 239.727996826 18.2000007629)
(57.6551017761 236.343994141 18.2000007629)
(39.6455993652 251.126998901 18.2000007629)
(40.6946983337 263.20300293 18.2000007629)
(-44.4530982971 99.6082992554 8)
(-32.5797996521 99.4467010498 8)
(-44.4530982971 99.6082992554 -13.8000001907)
(-32.5797996521 99.4467010498 -13.8000001907)
(-45.5845985413 84.62840271 -13.8000001907)
(-45.5961990356 48.0047988892 -13.8000001907)
(-45.5845985413 84.62840271 18)
(-45.5961990356 48.0047988892 18)
(-45.3245010376 84.9464035034 -13.8000001907)
(-45.3245010376 84.9464035034 18)
(-45.3791007996 84.9904022217 -13.8000001907)
(-45.3791007996 84.9904022217 18)
(-45.4347991943 85.0133972168 -13.8000001907)
(-45.4347991943 85.0133972168 18)
(-44.3897018433 99.103302002 -13.8000001907)
(-44.3897018433 99.103302002 18)
(-44.4898986816 99.1102981567 -13.8000001907)
(-44.4898986816 99.1102981567 18)
(-44.4530982971 99.6082992554 18)
(-32.5932006836 57.4799003601 -13.8000001907)
(-32.5932006836 57.4799003601 18)
(-32.5797996521 99.4467010498 18)
(-40.3431015015 48.0029983521 -13.8000001907)
(-40.3431015015 48.0029983521 18)
(-44.4530982971 99.6082992554 18.2000007629)
(-28.2947006226 179.147994995 8)
(-44.4160995483 159.279998779 8)
(-28.2947006226 179.147994995 18.2000007629)
(-44.4160995483 159.279998779 18.2000007629)
(-16.6558990479 182.531997681 8)
(-16.6558990479 182.531997681 18.2000007629)
(1.35438001156 167.75 8)
(1.35438001156 167.75 18.2000007629)
(0.304650992155 155.675003052 8)
(0.304650992155 155.675003052 18.2000007629)
(-32.4882011414 115.722000122 8)
(-32.4882011414 115.722000122 18.2000007629)
(-32.59349823 115.596000671 8)
(-32.59349823 115.596000671 18.2000007629)
(-44.529499054 116.320999146 8)
(-44.529499054 116.320999146 18.2000007629)
(-41.7853012085 123.238998413 8)
(-41.7853012085 123.238998413 18.2000007629)
(-10.2714996338 161.70300293 8)
(-10.2714996338 161.70300293 18.2000007629)
(-24.9783992767 173.664993286 8)
(-24.9783992767 173.664993286 18.2000007629)
(-37.5852012634 158.223999023 8)
(-37.5852012634 158.223999023 18.2000007629)
(-34.4859008789 155.694000244 8)
(-34.4859008789 155.694000244 18.2000007629)
(-36.7270011902 153.005004883 8)
(-36.7270011902 153.005004883 18.2000007629)
(-39.9938011169 -1.0174100399 -13.8000001907)
(-40.0027008057 -28.4179992676 -13.8000001907)
(-39.9938011169 -1.0174100399 18)
(-40.0027008057 -28.4179992676 18)
(-24.5939006805 -1.02301001549 -13.8000001907)
(-24.5939006805 -1.02301001549 18)
(-24.5842990875 28.1765003204 -13.8000001907)
(-24.5842990875 28.1765003204 18)
(-43.1053009033 28.1634998322 -13.8000001907)
(-43.1053009033 28.1634998322 18)
(-43.0581016541 47.9595985413 -13.8000001907)
(-43.0581016541 47.9595985413 18)
(-39.978099823 47.9592018127 -13.8000001907)
(-39.978099823 47.9592018127 18)
(-32.3804016113 57.248298645 -13.8000001907)
(-32.3804016113 57.248298645 18)
(-0.983147025108 31.5699996948 -13.8000001907)
(-0.983147025108 31.5699996948 18)
(-1.00239002705 -28.4309005737 -13.8000001907)
(-1.00239002705 -28.4309005737 18)
)


// edges:

288
(
(3 1)
(1 2)
(4 3)
(6 5)
(5 1)
(3 6)
(8 7)
(7 5)
(6 8)
(9 7)
(8 10)
(11 9)
(10 12)
(11 13)
(13 15)
(15 16)
(16 17)
(18 19)
(17 18)
(19 14)
(14 20)
(20 2)
(21 19)
(18 22)
(22 21)
(21 23)
(24 20)
(23 24)
(24 4)
(12 25)
(25 13)
(26 15)
(25 26)
(27 16)
(26 27)
(28 17)
(27 28)
(28 22)
(31 29)
(30 32)
(32 31)
(35 33)
(33 34)
(34 36)
(36 35)
(37 33)
(35 38)
(39 37)
(38 40)
(42 41)
(41 39)
(40 42)
(43 41)
(42 44)
(46 45)
(45 43)
(44 46)
(31 45)
(46 47)
(48 32)
(49 48)
(50 49)
(52 51)
(51 48)
(49 52)
(34 51)
(52 36)
(53 47)
(50 0)
(0 53)
(56 54)
(54 55)
(55 57)
(57 56)
(59 58)
(58 54)
(56 59)
(61 60)
(60 58)
(59 61)
(63 62)
(62 60)
(61 63)
(65 64)
(64 62)
(63 65)
(66 64)
(65 67)
(30 66)
(67 0)
(68 29)
(69 68)
(53 69)
(71 70)
(70 68)
(69 71)
(72 70)
(71 73)
(74 72)
(73 75)
(76 74)
(75 77)
(79 78)
(78 76)
(77 79)
(81 80)
(80 78)
(79 81)
(55 80)
(81 57)
(84 82)
(82 83)
(83 85)
(85 84)
(86 82)
(84 87)
(88 86)
(87 89)
(91 90)
(90 88)
(89 91)
(93 92)
(92 90)
(91 93)
(94 92)
(93 95)
(97 96)
(96 94)
(95 97)
(99 98)
(98 96)
(97 99)
(101 100)
(100 98)
(99 101)
(83 100)
(101 85)
(2 4)
(10 9)
(12 11)
(23 14)
(29 30)
(38 37)
(40 39)
(44 43)
(47 29)
(50 47)
(67 66)
(73 72)
(75 74)
(77 76)
(87 86)
(89 88)
(95 94)
(1 6)
(9 12)
(18 21)
(19 23)
(14 24)
(20 4)
(15 27)
(16 28)
(17 22)
(30 31)
(34 35)
(39 42)
(41 44)
(43 46)
(45 29)
(30 50)
(48 52)
(58 61)
(60 63)
(66 50)
(47 69)
(68 71)
(72 75)
(76 79)
(83 84)
(82 87)
(88 91)
(92 95)
(98 101)
(100 85)
(2 3)
(5 8)
(7 10)
(14 11)
(13 14)
(2 11)
(14 2)
(1 11)
(15 14)
(16 14)
(17 14)
(19 17)
(1 9)
(5 9)
(25 11)
(13 26)
(23 4)
(12 4)
(23 12)
(12 3)
(10 3)
(10 6)
(28 23)
(21 28)
(27 23)
(26 23)
(25 23)
(33 38)
(37 40)
(46 29)
(30 48)
(30 49)
(51 36)
(49 36)
(49 35)
(49 38)
(50 38)
(50 44)
(44 38)
(47 44)
(40 44)
(34 48)
(33 48)
(37 48)
(43 37)
(39 43)
(32 37)
(43 32)
(31 43)
(50 53)
(55 56)
(54 59)
(62 65)
(64 67)
(67 50)
(47 68)
(70 73)
(74 77)
(78 81)
(80 57)
(80 76)
(55 76)
(55 74)
(54 74)
(58 74)
(58 72)
(60 72)
(62 72)
(62 70)
(64 70)
(66 70)
(29 66)
(68 66)
(77 57)
(81 77)
(75 57)
(75 56)
(75 59)
(73 59)
(73 61)
(73 63)
(71 63)
(71 65)
(71 67)
(69 67)
(53 67)
(86 89)
(90 93)
(94 97)
(96 99)
(85 87)
(101 87)
(99 87)
(99 89)
(97 89)
(95 89)
(91 95)
(100 86)
(86 98)
(83 86)
(88 98)
(88 96)
(88 94)
(90 94)
)

// * * * * * * * * * * * * * * * * * * * * * * * * * * * * * * * * * * * * * //


// ************************************************************************* //
