/*---------------------------------------------------------------------------*\
| =========                 |                                                 |
| \\      /  F ield         | OpenFOAM: The Open Source CFD Toolbox           |
|  \\    /   O peration     | Version:  v2006                                 |
|   \\  /    A nd           | Website:  www.openfoam.com                      |
|    \\/     M anipulation  |                                                 |
\*---------------------------------------------------------------------------*/
FoamFile
{
    version     2.0;
    format      ascii;
    class       dictionary;
    location    "constant";
    object      waveProperties;
}
// * * * * * * * * * * * * * * * * * * * * * * * * * * * * * * * * * * * * * //

inlet
{

    alpha            alpha.water;

    waveModel        irregularMultiDirectional;

    nPaddle          1;

    rampTime         2.0;

    activeAbsorption no;

    wavePeriods
    1000
    (
(2.468260053622327)
(2.4645827529729063)
(2.460916393167147)
(2.4572609254501607)
(2.453616301356314)
(2.4499824727070854)
(2.446359391608943)
(2.44274701045124)
(2.4391452819041293)
(2.4355541589164957)
(2.4319735947139094)
(2.428403542796591)
(2.424843956937403)
(2.4212947911798524)
(2.4177559998361113)
(2.4142275374850612)
(2.4107093589703443)
(2.407201419398441)
(2.4037036741367572)
(2.400216078811735)
(2.3967385893069735)
(2.3932711617613696)
(2.3898137525672736)
(2.386366318368661)
(2.3829288160593207)
(2.3795012027810594)
(2.3760834359219167)
(2.3726754731144037)
(2.3692772722337487)
(2.3658887913961646)
(2.362509988957126)
(2.359140823509664)
(2.355781253882674)
(2.35243123913924)
(2.3490907385749704)
(2.345759711716351)
(2.342438118319108)
(2.339125918366589)
(2.3358230720681576)
(2.332529539857595)
(2.329245282391526)
(2.325970260547847)
(2.3227044354241775)
(2.3194477683363153)
(2.316200220816712)
(2.312961754612958)
(2.309732331686279)
(2.306511914210048)
(2.30330046456831)
(2.3000979453543127)
(2.2969043193690593)
(2.2937195496198637)
(2.2905435993189265)
(2.287376431881915)
(2.284218010926561)
(2.2810683002712655)
(2.277927263933718)
(2.274794866129527)
(2.2716710712708608)
(2.2685558439650975)
(2.2654491490134925)
(2.262350951409849)
(2.2592612163392056)
(2.2561799091765304)
(2.253106995485429)
(2.2500424410168613)
(2.2469862117078687)
(2.2439382736803113)
(2.240898593239619)
(2.2378671368735463)
(2.234843871250942)
(2.23182876322053)
(2.2288217798096928)
(2.225822888223275)
(2.2228320558423853)
(2.219849250223219)
(2.216874439095882)
(2.213907590363228)
(2.2109486720997027)
(2.207997652550202)
(2.205054500128931)
(2.2021191834182816)
(2.199191671167713)
(2.1962719322926416)
(2.1933599358733424)
(2.1904556511538558)
(2.1875590475409075)
(2.184670094602831)
(2.1817887620685044)
(2.178915019826292)
(2.1760488379229956)
(2.173190186562813)
(2.1703390361063084)
(2.1674953570693822)
(2.1646591201222627)
(2.161830296088489)
(2.1590088559439184)
(2.156194770815729)
(2.1533880119814355)
(2.1505885508679135)
(2.147796359050427)
(2.1450114082516714)
(2.142233670340814)
(2.139463117332548)
(2.136699721386154)
(2.1339434548045677)
(2.1311942900334526)
(2.1284521996602828)
(2.1257171564134314)
(2.1229891331612682)
(2.12026810291126)
(2.1175540388090828)
(2.1148469141377353)
(2.1121467023166653)
(2.109453376900898)
(2.106766911580174)
(2.10408728017809)
(2.101414456651252)
(2.0987484150884286)
(2.0960891297097155)
(2.093436574865705)
(2.090790725036658)
(2.0881515548316907)
(2.085519038987957)
(2.0828931523698473)
(2.0802738699681855)
(2.0776611668994347)
(2.0750550184049117)
(2.072455399850003)
(2.069862286723389)
(2.0672756546362745)
(2.0646954793216215)
(2.062121736633394)
(2.0595544025458024)
(2.056993453152556)
(2.054438864666122)
(2.0518906134169876)
(2.04934867585293)
(2.046813028538291)
(2.044283648153256)
(2.041760511493139)
(2.0392435954676738)
(2.036732877100309)
(2.03422833352751)
(2.031729941998062)
(2.0292376798723852)
(2.0267515246218477)
(2.0242714538280877)
(2.021797445182341)
(2.01932947648477)
(2.0168675256438005)
(2.0144115706754633)
(2.011961589702738)
(2.009517560954906)
(2.007079462766903)
(2.004647273578681)
(2.0022209719345705)
(1.9998005364826525)
(1.99738594597413)
(1.994977179262706)
(1.9925742153039678)
(1.9901770331547735)
(1.987785611972642)
(1.9853999310151516)
(1.983019969639339)
(1.9806457073011023)
(1.978277123554614)
(1.9759141980517287)
(1.973556910541406)
(1.9712052408691265)
(1.9688591689763222)
(1.9665186748998036)
(1.9641837387711933)
(1.9618543408163651)
(1.9595304613548852)
(1.957212080799457)
(1.954899179655373)
(1.9525917385199663)
(1.9502897380820687)
(1.9479931591214725)
(1.9457019825083948)
(1.9434161892029467)
(1.941135760254606)
(1.9388606768016934)
(1.9365909200708527)
(1.9343264713765334)
(1.9320673121204792)
(1.929813423791219)
(1.9275647879635591)
(1.925321386298084)
(1.9230832005406557)
(1.9208502125219202)
(1.9186224041568134)
(1.9163997574440763)
(1.9141822544657676)
(1.9119698773867824)
(1.909762608454375)
(1.9075604299976843)
(1.90536332442726)
(1.9031712742345974)
(1.9009842619916701)
(1.8988022703504686)
(1.896625282042542)
(1.894453279878542)
(1.8922862467477717)
(1.8901241656177339)
(1.8879670195336868)
(1.8858147916182013)
(1.8836674650707181)
(1.881525023167113)
(1.8793874492592628)
(1.8772547267746114)
(1.8751268392157447)
(1.8730037701599642)
(1.870885503258863)
(1.8687720222379076)
(1.8666633108960213)
(1.8645593531051698)
(1.8624601328099495)
(1.8603656340271801)
(1.8582758408454982)
(1.8561907374249544)
(1.8541103079966141)
(1.8520345368621585)
(1.8499634083934904)
(1.847896907032343)
(1.8458350172898879)
(1.843777723746351)
(1.8417250110506258)
(1.8396768639198928)
(1.8376332671392404)
(1.8355942055612864)
(1.8335596641058063)
(1.8315296277593598)
(1.8295040815749213)
(1.8274830106715143)
(1.8254664002338472)
(1.8234542355119485)
(1.8214465018208108)
(1.819443184540031)
(1.8174442691134571)
(1.8154497410488337)
(1.8134595859174543)
(1.811473789353811)
(1.8094923370552505)
(1.807515214781629)
(1.8055424083549736)
(1.803573903659141)
(1.8016096866394815)
(1.7996497433025056)
(1.7976940597155502)
(1.7957426220064492)
(1.7937954163632057)
(1.7918524290336655)
(1.7899136463251935)
(1.7879790546043526)
(1.786048640296584)
(1.7841223898858887)
(1.7822002899145133)
(1.780282326982636)
(1.7783684877480554)
(1.776458758925881)
(1.7745531272882253)
(1.7726515796639)
(1.7707541029381102)
(1.7688606840521555)
(1.7669713100031281)
(1.7650859678436164)
(1.763204644681409)
(1.761327327679201)
(1.7594540040543014)
(1.7575846610783439)
(1.7557192860769981)
(1.7538578664296824)
(1.7520003895692806)
(1.7501468429818585)
(1.7482972142063833)
(1.7464514908344428)
(1.7446096605099701)
(1.7427717109289667)
(1.7409376298392283)
(1.7391074050400732)
(1.7372810243820718)
(1.7354584757667768)
(1.7336397471464566)
(1.7318248265238312)
(1.7300137019518058)
(1.7282063615332102)
(1.7264027934205386)
(1.72460298581569)
(1.7228069269697108)
(1.72101460518254)
(1.719226008802754)
(1.7174411262273155)
(1.7156599459013213)
(1.7138824563177537)
(1.7121086460172323)
(1.7103385035877678)
(1.7085720176645185)
(1.7068091769295444)
(1.705049970111568)
(1.703294385985733)
(1.7015424133733656)
(1.6997940411417376)
(1.6980492582038296)
(1.6963080535180985)
(1.6945704160882424)
(1.6928363349629707)
(1.6911057992357736)
(1.689378798044693)
(1.6876553205720954)
(1.685935356044447)
(1.6842188937320879)
(1.6825059229490094)
(1.6807964330526326)
(1.6790904134435882)
(1.6773878535654958)
(1.6756887429047487)
(1.673993070990295)
(1.6723008273934248)
(1.6706120017275536)
(1.6689265836480136)
(1.6672445628518384)
(1.665565929077556)
(1.6638906721049787)
(1.6622187817549967)
(1.6605502478893706)
(1.6588850604105274)
(1.657223209261357)
(1.655564684425009)
(1.6539094759246915)
(1.6522575738234722)
(1.6506089682240779)
(1.6489636492686974)
(1.6473216071387864)
(1.6456828320548702)
(1.64404731427635)
(1.6424150441013114)
(1.6407860118663304)
(1.6391602079462841)
(1.6375376227541611)
(1.6359182467408726)
(1.6343020703950648)
(1.6326890842429331)
(1.631079278848038)
(1.629472644811119)
(1.6278691727699126)
(1.6262688533989715)
(1.6246716774094825)
(1.6230776355490866)
(1.6214867186017017)
(1.619898917387344)
(1.618314222761951)
(1.6167326256172074)
(1.6151541168803696)
(1.6135786875140923)
(1.6120063285162554)
(1.6104370309197948)
(1.6088707857925293)
(1.6073075842369922)
(1.605747417390263)
(1.6041902764238007)
(1.6026361525432749)
(1.6010850369884022)
(1.5995369210327817)
(1.5979917959837293)
(1.5964496531821177)
(1.5949104840022132)
(1.5933742798515145)
(1.5918410321705931)
(1.5903107324329355)
(1.5887833721447842)
(1.587258942844979)
(1.5857374361048044)
(1.5842188435278308)
(1.582703156749762)
(1.5811903674382808)
(1.5796804672928968)
(1.5781734480447942)
(1.5766693014566806)
(1.5751680193226385)
(1.5736695934679739)
(1.572174015749069)
(1.5706812780532349)
(1.5691913722985646)
(1.5677042904337872)
(1.5662200244381221)
(1.5647385663211368)
(1.5632599081226015)
(1.5617840419123465)
(1.5603109597901232)
(1.5588406538854593)
(1.5573731163575206)
(1.5559083393949729)
(1.5544463152158405)
(1.5529870360673703)
(1.5515304942258947)
(1.550076681996695)
(1.5486255917138647)
(1.547177215740178)
(1.5457315464669517)
(1.5442885763139145)
(1.5428482977290756)
(1.5414107031885893)
(1.539975785196627)
(1.538543536285246)
(1.5371139490142594)
(1.5356870159711087)
(1.534262729770734)
(1.5328410830554475)
(1.5314220684948072)
(1.5300056787854894)
(1.5285919066511648)
(1.5271807448423744)
(1.5257721861364033)
(1.5243662233371593)
(1.5229628492750504)
(1.5215620568068617)
(1.520163838815635)
(1.5187681882105493)
(1.5173750979267984)
(1.5159845609254732)
(1.5145965701934443)
(1.513211118743242)
(1.5118281996129395)
(1.510447805866038)
(1.5090699305913482)
(1.5076945669028767)
(1.5063217079397109)
(1.5049513468659037)
(1.5035834768703633)
(1.502218091166736)
(1.5008551829932972)
(1.499494745612839)
(1.4981367723125578)
(1.4967812564039462)
(1.4954281912226814)
(1.4940775701285167)
(1.4927293865051725)
(1.491383633760229)
(1.490040305325018)
(1.488699394654516)
(1.487360895227239)
(1.486024800545135)
(1.4846911041334803)
(1.4833597995407748)
(1.482030880338637)
(1.480704340121701)
(1.4793801725075146)
(1.4780583711364355)
(1.4767389296715296)
(1.4754218417984708)
(1.4741071012254396)
(1.472794701683023)
(1.4714846369241144)
(1.4701769007238148)
(1.4688714868793356)
(1.4675683892098974)
(1.4662676015566354)
(1.464969117782501)
(1.4636729317721657)
(1.4623790374319243)
(1.461087428689601)
(1.4597980994944524)
(1.4585110438170747)
(1.4572262556493092)
(1.4559437290041484)
(1.4546634579156428)
(1.45338543643881)
(1.4521096586495406)
(1.4508361186445078)
(1.449564810541077)
(1.4482957284772133)
(1.447028866611393)
(1.4457642191225133)
(1.4445017802098037)
(1.4432415440927362)
(1.4419835050109386)
(1.440727657224105)
(1.4394739950119109)
(1.438222512673923)
(1.4369732045295158)
(1.4357260649177848)
(1.4344810881974597)
(1.4332382687468206)
(1.4319976009636142)
(1.4307590792649671)
(1.4295226980873041)
(1.4282884518862649)
(1.4270563351366197)
(1.4258263423321877)
(1.4245984679857564)
(1.423372706628997)
(1.4221490528123852)
(1.4209275011051217)
(1.419708046095048)
(1.4184906823885701)
(1.4172754046105773)
(1.416062207404364)
(1.4148510854315495)
(1.413642033372001)
(1.412435045923755)
(1.4112301178029412)
(1.410027243743703)
(1.4088264184981225)
(1.407627636836145)
(1.4064308935454997)
(1.4052361834316274)
(1.404043501317605)
(1.402852842044069)
(1.4016642004691415)
(1.4004775714683586)
(1.3992929499345934)
(1.3981103307779847)
(1.3969297089258639)
(1.395751079322682)
(1.394574436929937)
(1.3933997767261046)
(1.3922270937065628)
(1.3910563828835243)
(1.389887639285964)
(1.3887208579595494)
(1.3875560339665696)
(1.386393162385867)
(1.3852322383127667)
(1.384073256859009)
(1.3829162131526795)
(1.3817611023381406)
(1.380607919575966)
(1.3794566600428695)
(1.3783073189316404)
(1.3771598914510765)
(1.376014372825916)
(1.3748707582967719)
(1.3737290431200673)
(1.372589222567968)
(1.371451291928318)
(1.3703152465045754)
(1.3691810816157461)
(1.368048792596321)
(1.366918374796211)
(1.3657898235806842)
(1.3646631343303017)
(1.3635383024408556)
(1.3624153233233047)
(1.3612941924037139)
(1.3601749051231915)
(1.359057456937826)
(1.3579418433186272)
(1.3568280597514626)
(1.3557161017369974)
(1.3546059647906357)
(1.3534976444424562)
(1.3523911362371561)
(1.3512864357339898)
(1.350183538506709)
(1.3490824401435038)
(1.3479831362469454)
(1.3468856224339256)
(1.345789894335599)
(1.3446959475973264)
(1.343603777878615)
(1.3425133808530623)
(1.3414247522082994)
(1.3403378876459324)
(1.3392527828814877)
(1.3381694336443553)
(1.3370878356777303)
(1.3360079847385613)
(1.334929876597493)
(1.3338535070388087)
(1.332778871860379)
(1.3317059668736064)
(1.3306347879033678)
(1.3295653307879642)
(1.3284975913790649)
(1.3274315655416538)
(1.326367249153977)
(1.3253046381074889)
(1.3242437283067987)
(1.32318451566962)
(1.322126996126716)
(1.3210711656218483)
(1.3200170201117263)
(1.3189645555659535)
(1.3179137679669768)
(1.3168646533100368)
(1.3158172076031147)
(1.3147714268668833)
(1.3137273071346567)
(1.3126848444523374)
(1.3116440348783707)
(1.3106048744836922)
(1.309567359351678)
(1.3085314855780976)
(1.3074972492710637)
(1.3064646465509826)
(1.305433673550508)
(1.3044043264144902)
(1.3033766012999297)
(1.3023504943759292)
(1.301326001823645)
(1.3003031198362405)
(1.2992818446188394)
(1.298262172388478)
(1.297244099374058)
(1.2962276218163018)
(1.2952127359677044)
(1.294199438092488)
(1.2931877244665573)
(1.292177591377452)
(1.291169035124302)
(1.2901620520177832)
(1.2891566383800714)
(1.2881527905447976)
(1.2871505048570044)
(1.2861497776731)
(1.2851506053608155)
(1.2841529842991615)
(1.2831569108783811)
(1.2821623814999104)
(1.2811693925763323)
(1.2801779405313352)
(1.2791880217996687)
(1.2781996328271017)
(1.2772127700703793)
(1.2762274299971812)
(1.2752436090860788)
(1.2742613038264934)
(1.2732805107186553)
(1.272301226273561)
(1.2713234470129318)
(1.2703471694691748)
(1.2693723901853387)
(1.2683991057150752)
(1.2674273126225983)
(1.2664570074826424)
(1.2654881868804235)
(1.2645208474115992)
(1.2635549856822268)
(1.2625905983087264)
(1.26162768191784)
(1.260666233146591)
(1.259706248642248)
(1.2587477250622825)
(1.257790659074333)
(1.2568350473561647)
(1.255880886595631)
(1.2549281734906361)
(1.2539769047490967)
(1.2530270770889034)
(1.2520786872378837)
(1.2511317319337643)
(1.2501862079241335)
(1.2492421119664032)
(1.2482994408277743)
(1.2473581912851968)
(1.2464183601253347)
(1.2454799441445297)
(1.2445429401487635)
(1.2436073449536227)
(1.2426731553842627)
(1.2417403682753705)
(1.2408089804711304)
(1.2398789888251887)
(1.2389503902006158)
(1.238023181469874)
(1.23709735951478)
(1.2361729212264716)
(1.2352498635053721)
(1.2343281832611555)
(1.2334078774127124)
(1.2324889428881158)
(1.2315713766245864)
(1.2306551755684587)
(1.2297403366751483)
(1.2288268569091156)
(1.227914733243835)
(1.2270039626617597)
(1.226094542154289)
(1.2251864687217353)
(1.2242797393732914)
(1.223374351126996)
(1.2224703010097036)
(1.2215675860570498)
(1.22066620331342)
(1.2197661498319163)
(1.2188674226743272)
(1.217970018911093)
(1.2170739356212756)
(1.216179169892528)
(1.2152857188210586)
(1.214393579511605)
(1.2135027490773986)
(1.2126132246401358)
(1.2117250033299463)
(1.2108380822853617)
(1.2099524586532853)
(1.2090681295889625)
(1.2081850922559478)
(1.207303343826077)
(1.2064228814794358)
(1.2055437024043296)
(1.2046658037972544)
(1.2037891828628662)
(1.2029138368139518)
(1.2020397628713988)
(1.2011669582641669)
(1.2002954202292577)
(1.1994251460116865)
(1.1985561328644532)
(1.1976883780485112)
(1.1968218788327427)
(1.1959566324939268)
(1.1950926363167116)
(1.1942298875935866)
(1.1933683836248539)
(1.1925081217185998)
(1.1916490991906679)
(1.1907913133646295)
(1.189934761571757)
(1.189079441150996)
(1.1882253494489372)
(1.1873724838197899)
(1.1865208416253539)
(1.1856704202349926)
(1.1848212170256058)
(1.1839732293816032)
(1.1831264546948765)
(1.1822808903647737)
(1.1814365337980721)
(1.180593382408952)
(1.1797514336189694)
(1.1789106848570314)
(1.1780711335593679)
(1.1772327771695072)
(1.1763956131382503)
(1.1755596389236427)
(1.1747248519909514)
(1.173891249812638)
(1.1730588298683329)
(1.1722275896448107)
(1.1713975266359644)
(1.1705686383427802)
(1.169740922273313)
(1.1689143759426608)
(1.1680889968729395)
(1.1672647825932596)
(1.1664417306397001)
(1.165619838555284)
(1.1647991038899557)
(1.1639795242005537)
(1.1631610970507886)
(1.1623438200112186)
(1.1615276906592247)
(1.1607127065789873)
(1.1598988653614628)
(1.159086164604358)
(1.1582746019121088)
(1.1574641748958565)
(1.1566548811734214)
(1.155846718369283)
(1.1550396841145554)
(1.1542337760469632)
(1.1534289918108203)
(1.1526253290570052)
(1.1518227854429395)
(1.1510213586325644)
(1.150221046296318)
(1.1494218461111132)
(1.148623755760315)
(1.1478267729337177)
(1.1470308953275232)
(1.1462361206443188)
(1.1454424465930544)
(1.1446498708890214)
(1.1438583912538303)
(1.1430680054153883)
(1.1422787111078792)
(1.14149050607174)
(1.14070338805364)
(1.1399173548064594)
(1.1391324040892687)
(1.1383485336673056)
(1.137565741311955)
(1.1367840248007286)
(1.1360033819172413)
(1.1352238104511931)
(1.134445308198347)
(1.1336678729605072)
(1.132891502545501)
(1.1321161947671554)
(1.1313419474452786)
(1.1305687584056383)
(1.1297966254799423)
(1.1290255465058172)
(1.1282555193267896)
(1.1274865417922644)
(1.1267186117575059)
(1.125951727083618)
(1.1251858856375228)
(1.1244210852919427)
(1.1236573239253802)
(1.1228945994220971)
(1.1221329096720962)
(1.121372252571102)
(1.1206126260205396)
(1.119854027927518)
(1.119096456204809)
(1.1183399087708275)
(1.1175843835496153)
(1.116829878470819)
(1.116076391469673)
(1.1153239204869796)
(1.1145724634690912)
(1.1138220183678906)
(1.1130725831407735)
(1.1123241557506287)
(1.1115767341658205)
(1.1108303163601707)
(1.110084900312939)
(1.1093404840088055)
(1.1085970654378534)
(1.107854642595549)
(1.1071132134827253)
(1.1063727761055633)
(1.1056333284755744)
(1.1048948686095819)
(1.1041573945297052)
(1.1034209042633392)
(1.1026853958431393)
(1.1019508673070033)
(1.1012173166980523)
(1.1004847420646156)
(1.099753141460212)
(1.0990225129435327)
(1.098292854578425)
(1.0975641644338738)
(1.096836440583986)
(1.0961096811079727)
(1.0953838840901318)
(1.0946590476198328)
(1.0939351697914983)
(1.0932122487045888)
(1.0924902824635843)
(1.09176926917797)
(1.0910492069622173)
(1.0903300939357696)
(1.0896119282230246)
(1.0888947079533182)
(1.0881784312609086)
(1.08746309628496)
(1.086748701169526)
(1.0860352440635344)
(1.0853227231207707)
(1.0846111364998618)
(1.0839004823642615)
(1.0831907588822327)
(1.0824819642268333)
(1.0817740965759002)
(1.0810671541120334)
(1.0803611350225795)
(1.0796560374996187)
(1.0789518597399472)
(1.078248599945062)
(1.077546256321147)
(1.0768448270790565)
(1.0761443104342996)
(1.0754447046070272)
(1.0747460078220148)
(1.074048218308648)
(1.073351334300908)
(1.0726553540373567)
(1.0719602757611213)
(1.0712660977198805)
(1.0705728181658476)
(1.0698804353557592)
(1.069188947550858)
(1.0684983530168781)
(1.0678086500240331)
(1.0671198368469985)
(1.0664319117648993)
(1.0657448730612955)
(1.065058719024167)
(1.0643734479458993)
(1.0636890581232712)
(1.0630055478574387)
(1.0623229154539209)
(1.061641159222588)
(1.060960277477645)
(1.0602802685376194)
(1.0596011307253466)
(1.0589228623679565)
(1.0582454617968593)
(1.0575689273477324)
(1.0568932573605065)
(1.0562184501793515)
(1.0555445041526643)
(1.0548714176330534)
(1.0541991889773277)
(1.0535278165464814)
(1.052857298705681)
(1.052187633824253)
(1.05151882027567)
(1.0508508564375365)
(1.0501837406915782)
(1.0495174714236262)
(1.0488520470236065)
(1.0481874658855248)
(1.0475237264074557)
(1.0468608269915278)
(1.0461987660439123)
(1.0455375419748099)
(1.0448771531984373)
(1.044217598133016)
(1.0435588752007583)
(1.042900982827855)
(1.0422439194444642)
(1.0415876834846962)
(1.040932273386604)
(1.0402776875921684)
(1.0396239245472878)
(1.0389709827017637)
(1.0383188605092908)
(1.0376675564274422)
(1.0370170689176599)
(1.0363673964452413)
(1.035718537479326)
(1.0350704904928865)
(1.034423253962714)
(1.0337768263694072)
(1.0331312061973608)
(1.0324863919347531)
(1.0318423820735338)
(1.031199175109414)
(1.0305567695418523)
(1.0299151638740442)
(1.0292743566129114)
(1.028634346269088)
(1.0279951313569107)
(1.0273567103944072)
(1.0267190819032836)
(1.0260822444089142)
(1.0254461964403294)
(1.0248109365302052)
(1.0241764632148505)
(1.0235427750341974)
(1.022909870531789)
(1.0222777482547685)
(1.0216464067538686)
(1.0210158445833992)
(1.020386060301238)
(1.019757052468818)
(1.0191288196511172)
(1.018501360416648)
(1.017874673337446)
(1.0172487569890587)
(1.0166236099505357)
(1.015999230804417)
(1.015375618136723)
(1.0147527705369437)
(1.014130686598027)
(1.0135093649163702)
(1.0128888040918074)
(1.0122690027276002)
(1.0116499594304265)
(1.011031672810371)
(1.0104141414809136)
(1.0097973640589197)
(1.009181339164631)
(1.0085660654216517)
(1.0079515414569427)
(1.0073377659008083)
(1.006724737386887)
(1.0061124545521418)
(1.0055009160368493)
(1.0048901204845895)
(1.0042800665422376)
(1.003670752859951)
(1.0030621780911624)
(1.0024543408925677)
(1.001847239924117)
(1.0012408738490048)
(1.00063524133366)
(1.0000303410477367)
(0.9994261716641023)
(0.9988227318588314)
(0.9982200203111928)
(0.9976180357036416)
(0.9970167767218096)
(0.9964162420544946)
(0.9958164303936522)
(0.9952173404343858)
(0.9946189708749361)
(0.9940213204166737)
(0.9934243877640885)
(0.9928281716247795)
(0.9922326707094477)
(0.9916378837318848)
(0.9910438094089646)
    );

    waveHeights
    1000
    (
(0.002400396103713195)
(0.002424822405030631)
(0.0024492590580374)
(0.0024737036108598816)
(0.0024981536274085504)
(0.0025226066878686333)
(0.002547060389175591)
(0.002571512345475698)
(0.0025959601885716605)
(0.0026204015683534776)
(0.002644834153214602)
(0.002669255630453584)
(0.0026936637066612085)
(0.002718056108093424)
(0.0027424305810300116)
(0.0027667848921193116)
(0.0027911168287090187)
(0.0028154241991632874)
(0.002839704833166262)
(0.002863956582012185)
(0.002888177318882291)
(0.002912364939108634)
(0.0029365173604249855)
(0.002960632523205027)
(0.002984708390688013)
(0.003008742949192039)
(0.003032734208315178)
(0.003056680201124555)
(0.003080578984333706)
(0.003104428638468234)
(0.0031282272680201112)
(0.0031519730015907134)
(0.0031756639920228424)
(0.0031992984165218866)
(0.003222874476766376)
(0.0032463903990080454)
(0.0032698444341617053)
(0.0032932348578850077)
(0.003316559970648417)
(0.003339818097795503)
(0.003363007589593765)
(0.0033861268212762577)
(0.0034091741930740898)
(0.0034321481302401415)
(0.003455047083064061)
(0.0034778695268788385)
(0.0035006139620590844)
(0.003523278914011261)
(0.0035458629331560107)
(0.0035683645949028306)
(0.00359078249961721)
(0.0036131152725805147)
(0.003635361563942703)
(0.0036575200486681607)
(0.003679589426474783)
(0.0037015684217664604)
(0.0037234557835592397)
(0.003745250285401291)
(0.003766950725286807)
(0.0037885559255641217)
(0.0038100647328381397)
(0.0038314760178672644)
(0.003852788675455064)
(0.003874001624336694)
(0.0038951138070604514)
(0.0039161241898644)
(0.003937031762548433)
(0.003957835538341784)
(0.003978534553766236)
(0.003999127868495113)
(0.00401961456520831)
(0.004039993749443358)
(0.004060264549442865)
(0.004080426115998285)
(0.004100477622290324)
(0.0041204182637260165)
(0.004140247257772644)
(0.004159963843788678)
(0.004179567282851791)
(0.004199056857584161)
(0.004218431871975134)
(0.004237691651201413)
(0.00425683554144484)
(0.0042758629097080225)
(0.004294773143627722)
(0.004313565651286354)
(0.004332239861021496)
(0.004350795221233713)
(0.004369231200192642)
(0.0043875472858415756)
(0.004405742985600576)
(0.004423817826168224)
(0.004441771353322163)
(0.00445960313171849)
(0.004477312744690069)
(0.004494899794043928)
(0.004512363899857789)
(0.0045297047002758085)
(0.004546921851303683)
(0.004564015026603097)
(0.004580983917285737)
(0.004597828231706801)
(0.004614547695258229)
(0.004631142050161605)
(0.0046476110552609124)
(0.004663954485815127)
(0.004680172133290808)
(0.00469626380515465)
(0.004712229324666187)
(0.004728068530670607)
(0.004743781277391791)
(0.0047593674342256585)
(0.004774826885533812)
(0.004790159530437636)
(0.004805365282612781)
(0.004820444070084239)
(0.004835395835021903)
(0.004850220533536812)
(0.004864918135478009)
(0.004879488624230151)
(0.004893931996511842)
(0.004908248262174821)
(0.004922437444003935)
(0.004936499577518074)
(0.004950434710771961)
(0.004964242904158986)
(0.004977924230214997)
(0.004991478773423145)
(0.005004906630019815)
(0.005018207907801684)
(0.005031382725933879)
(0.005044431214759343)
(0.005057353515609403)
(0.005070149780615543)
(0.005082820172522482)
(0.005095364864502474)
(0.005107784039970979)
(0.005120077892403619)
(0.005132246625154513)
(0.005144290451275973)
(0.005156209593339613)
(0.005168004283258831)
(0.0051796747621127934)
(0.005191221279971781)
(0.005202644095724077)
(0.00521394347690428)
(0.005225119699523137)
(0.005236173047898878)
(0.005247103814490057)
(0.005257912299729951)
(0.005268598811862452)
(0.005279163666779566)
(0.005289607187860419)
(0.005299929705811866)
(0.005310131558510639)
(0.005320213090847124)
(0.0053301746545706625)
(0.0053400166081365025)
(0.0053497393165543)
(0.005359343151238249)
(0.00536882848985879)
(0.005378195716195948)
(0.005387445219994261)
(0.005396577396819302)
(0.0054055926479158545)
(0.005414491380067638)
(0.0054232740054586965)
(0.005431940941536343)
(0.005440492610875759)
(0.005448929441046149)
(0.0054572518644785415)
(0.00546546031833514)
(0.005473555244380324)
(0.005481537088853183)
(0.005489406302341689)
(0.005497163339658401)
(0.0055048086597178)
(0.005512342725415147)
(0.005519766003506943)
(0.005527078964492914)
(0.005534282082499589)
(0.005541375835165401)
(0.0055483607035273115)
(0.0055552371719090185)
(0.005562005727810624)
(0.005568666861799883)
(0.0055752210674049)
(0.00558166884100838)
(0.005588010681743326)
(0.005594247091390257)
(0.005600378574275864)
(0.0056064056371731615)
(0.005612328789203071)
(0.005618148541737459)
(0.005623865408303611)
(0.005629479904490133)
(0.0056349925478542465)
(0.0056404038578305215)
(0.005645714355640986)
(0.005650924564206592)
(0.0056560350080601205)
(0.005661046213260371)
(0.005665958707307763)
(0.005670773019061235)
(0.005675489678656503)
(0.005680109217425601)
(0.005684632167817769)
(0.005689059063321587)
(0.005693390438388442)
(0.005697626828357214)
(0.005701768769380267)
(0.00570581679835065)
(0.00570977145283056)
(0.005713633270981009)
(0.00571740279149272)
(0.005721080553518207)
(0.0057246670966050435)
(0.00572816296063033)
(0.005731568685736283)
(0.0057348848122670245)
(0.00573811188070646)
(0.005741250431617338)
(0.005744301005581368)
(0.005747264143140506)
(0.005750140384739255)
(0.005752930270668126)
(0.0057556343410081)
(0.005758253135576194)
(0.005760787193872027)
(0.0057632370550254625)
(0.005765603257745231)
(0.005767886340268592)
(0.005770086840311968)
(0.005772205295022582)
(0.005774242240931054)
(0.005776198213904962)
(0.0057780737491033626)
(0.005779869380932228)
(0.005781585643000837)
(0.005783223068079047)
(0.005784782188055513)
(0.005786263533896746)
(0.005787667635607104)
(0.0057889950221896086)
(0.005790246221607652)
(0.00579142176074753)
(0.005792522165381827)
(0.005793547960133608)
(0.005794499668441443)
(0.00579537781252522)
(0.005796182913352761)
(0.005796915490607214)
(0.0057975760626552105)
(0.005798165146515801)
(0.005798683257830122)
(0.005799130910831811)
(0.00579950861831815)
(0.005799816891621933)
(0.005800056240584024)
(0.0058002271735266425)
(0.005800330197227311)
(0.005800365816893497)
(0.005800334536137916)
(0.005800236856954499)
(0.0058000732796950095)
(0.005799844303046294)
(0.0057995504240081685)
(0.00579919213787193)
(0.005798769938199465)
(0.005798284316802978)
(0.0057977357637253035)
(0.005797124767220808)
(0.005796451813736848)
(0.005795717387895836)
(0.0057949219724778055)
(0.005794066048403593)
(0.005793150094718492)
(0.005792174588576497)
(0.005791140005225027)
(0.0057900468179901896)
(0.005788895498262549)
(0.0057876865154833776)
(0.00578642033713141)
(0.005785097428710086)
(0.00578371825373525)
(0.00578228327372333)
(0.005780792948179973)
(0.005779247734589117)
(0.005777648088402547)
(0.005775994463029832)
(0.005774287309828734)
(0.005772527078096019)
(0.005770714215058682)
(0.0057688491658655925)
(0.005766932373579519)
(0.0057649642791695625)
(0.0057629453215039764)
(0.00576087593734335)
(0.005758756561334188)
(0.005756587626002821)
(0.005754369561749723)
(0.0057521027968441335)
(0.005749787757419063)
(0.005747424867466619)
(0.0057450145488336605)
(0.0057425572212178)
(0.005740053302163717)
(0.00573750320705978)
(0.005734907349134987)
(0.00573226613945621)
(0.005729579986925735)
(0.0057268492982790855)
(0.005724074478083148)
(0.005721255928734572)
(0.005718394050458441)
(0.005715489241307222)
(0.005712541897159963)
(0.005709552411721786)
(0.005706521176523579)
(0.005703448580921997)
(0.005700335012099663)
(0.005697180855065626)
(0.005693986492656057)
(0.005690752305535161)
(0.005687478672196326)
(0.005684165968963485)
(0.0056808145699926964)
(0.0056774248472739345)
(0.005673997170633087)
(0.005670531907734144)
(0.005667029424081608)
(0.005663490083023071)
(0.005659914245751999)
(0.005656302271310681)
(0.005652654516593393)
(0.0056489713363496955)
(0.005645253083187942)
(0.0056415001075789195)
(0.005637712757859693)
(0.005633891380237579)
(0.005630036318794286)
(0.005626147915490216)
(0.00562222651016891)
(0.005618272440561626)
(0.005614286042292095)
(0.005610267648881372)
(0.005606217591752848)
(0.005602136200237406)
(0.005598023801578671)
(0.005593880720938411)
(0.005589707281402054)
(0.005585503803984326)
(0.005581270607634999)
(0.005577008009244759)
(0.005572716323651179)
(0.005568395863644798)
(0.005564046939975316)