/*--------------------------------*- C++ -*----------------------------------*\
| =========                 |                                                 |
| \\      /  F ield         | OpenFOAM: The Open Source CFD Toolbox           |
|  \\    /   O peration     | Version:  v2006                                 |
|   \\  /    A nd           | Website:  www.openfoam.com                      |
|    \\/     M anipulation  |                                                 |
\*---------------------------------------------------------------------------*/
FoamFile
{
    version     2.0;
    format      ascii;
    class       volScalarField;
    object      epsilon;
}
// * * * * * * * * * * * * * * * * * * * * * * * * * * * * * * * * * * * * * //

dimensions      [0 2 -3 0 0 0 0];

internalField   uniform 0.1;

boundaryField
{
    #includeEtc "caseDicts/setConstraintTypes"

    "(inlet|atmosphere|wall1|wall2|wall3)"
    {
        type            inletOutlet;
        inletValue      uniform 0.1;
        value           uniform 0.1;
    }

    "(floatingObject|bottom)"
    {
        type            epsilonWallFunction;
        value           uniform 0.1;
    }
}

// ************************************************************************* //
