/*--------------------------------*- C++ -*----------------------------------*\
| =========                 |                                                 |
| \\      /  F ield         | OpenFOAM: The Open Source CFD Toolbox           |
|  \\    /   O peration     | Version:  v2006                                 |
|   \\  /    A nd           | Website:  www.openfoam.com                      |
|    \\/     M anipulation  |                                                 |
\*---------------------------------------------------------------------------*/
FoamFile
{
    version     2.0;
    format      ascii;
    class       extendedFeatureEdgeMesh;
    location    "constant/extendedFeatureEdgeMesh";
    object      actuel2_canal_directionZ.extendedFeatureEdgeMesh;
}
// * * * * * * * * * * * * * * * * * * * * * * * * * * * * * * * * * * * * * //

// points

132
(
(22.01 -0.1 0)
(3.994299 -0.1 0)
(22.01 0 0)
(3.994299 0 0)
(3.9943 -0.1 0.182)
(3.9943 0 0.182)
(16.539 -0.1 0.181999)
(16.539 0 0.181999)
(17.9443 0 0.6324)
(17.9443 -0.1 0.6324)
(19.1748 0 0.6324)
(19.1748 -0.1 0.6324)
(19.9227 0 0.847)
(19.9227 -0.1 0.847)
(20.0232 0 0.847)
(20.0232 -0.1 0.847)
(20.4821 0 1.0059)
(20.4821 -0.1 1.0059)
(20.8307 0 1.005899)
(20.8307 -0.1 1.005899)
(21.0385 0 1.1201)
(21.0385 -0.1 1.1201)
(21.383 -0.1 1.148)
(21.383 0 1.148)
(21.3831 -0.1 1.1576)
(21.3831 0 1.1576)
(21.4531 -0.1 1.1576)
(21.4531 0 1.1576)
(21.4531 0 0.9454)
(21.4531 -0.1 0.9454)
(22.01 0 0.9454)
(22.01 -0.1 0.9454)
(16.60529 -0.1 0)
(9.39901 -0.1 0)
(16.60529 0 0)
(9.39901 0 0)
(3.9943 -0.1 0.0546)
(3.9943 -0.1 0.1274)
(3.9943 0 0.0546)
(3.9943 0 0.1274)
(12.77559 -0.1 0.182)
(7.75771 -0.1 0.182)
(12.77559 0 0.182)
(7.75771 0 0.182)
(16.96059 0 0.31712)
(17.52271 0 0.49728)
(16.96059 -0.1 0.31712)
(17.52271 -0.1 0.49728)
(18.31345 0 0.6324)
(18.80565 0 0.6324)
(18.31345 -0.1 0.6324)
(18.80565 -0.1 0.6324)
(19.39917 0 0.69678)
(19.69833 0 0.78262)
(19.39917 -0.1 0.69678)
(19.69833 -0.1 0.78262)
(19.95285 0 0.847)
(19.99305 0 0.847)
(19.95285 -0.1 0.847)
(19.99305 -0.1 0.847)
(20.16087 0 0.89467)
(20.34443 0 0.95823)
(20.16087 -0.1 0.89467)
(20.34443 -0.1 0.95823)
(20.58668 0 1.0059)
(20.72612 0 1.0059)
(20.58668 -0.1 1.0059)
(20.72612 -0.1 1.0059)
(20.97616 0 1.08584)
(20.89304 0 1.04016)
(20.97616 -0.1 1.08584)
(20.89304 -0.1 1.04016)
(21.14185 -0.1 1.12847)
(21.27965 -0.1 1.13963)
(21.14185 0 1.12847)
(21.27965 0 1.13963)
(21.38303 -0.1 1.15088)
(21.38307 -0.1 1.15472)
(21.38303 0 1.15088)
(21.38307 0 1.15472)
(21.4041 -0.1 1.1576)
(21.4321 -0.1 1.1576)
(21.4041 0 1.1576)
(21.4321 0 1.1576)
(21.4531 0 1.09394)
(21.4531 0 1.00906)
(21.4531 -0.1 1.09394)
(21.4531 -0.1 1.00906)
(21.62017 0 0.9454)
(21.84293 0 0.9454)
(21.62017 -0.1 0.9454)
(21.84293 -0.1 0.9454)
(22.01 -0.1 0.66178)
(22.01 -0.1 0.28362)
(22.01 0 0.66178)
(22.01 0 0.28362)
(9.50063 -0.1 0.181999)
(16.82405 -0.1 0.273357)
(9.682629 -0.1 1e-06)
(16.55069 -0.1 2e-06)
(16.95253 -0.1 0.314536)
(17.26707 -0.1 -0)
(9.453609 -0.1 0.181999)
(9.27161 -0.1 1e-06)
(9.50063 0 0.181999)
(16.82405 0 0.273357)
(9.682629 0 1e-06)
(16.55069 0 2e-06)
(16.95253 0 0.314536)
(17.26707 -0 -0)
(9.453609 0 0.181999)
(9.27161 0 1e-06)
(16.539 -0.07 0.182)
(16.539 -0.03 0.182)
(21.383 -0.07 1.148)
(21.383 -0.03 1.148)
(21.4531 -0.07 1.1576)
(21.4531 -0.03 1.1576)
(22.01 -0.03 0.9454)
(22.01 -0.07 0.9454)
(22.01 -0.07 0)
(22.01 -0.03 0)
(3.9943 -0.07 0)
(3.9943 -0.03 0)
(3.9943 -0.07 0.182)
(3.9943 -0.03 0.182)
(20.8307 -0.03 1.0059)
(20.8307 -0.07 1.0059)
(21.3831 -0.07 1.1576)
(21.3831 -0.03 1.1576)
(21.4531 -0.03 0.9454)
(21.4531 -0.07 0.9454)
)

// edges

174
(
(112 6)
(113 112)
(7 113)
(114 22)
(115 114)
(23 115)
(26 116)
(116 117)
(117 27)
(118 30)
(119 118)
(31 119)
(0 120)
(120 121)
(122 1)
(123 122)
(121 2)
(3 123)
(124 4)
(125 124)
(5 125)
(126 18)
(127 126)
(19 127)
(128 24)
(129 128)
(25 129)
(130 28)
(131 130)
(29 131)
(32 0)
(33 32)
(1 33)
(2 34)
(34 35)
(35 3)
(36 1)
(37 36)
(4 37)
(3 38)
(38 39)
(39 5)
(6 40)
(40 41)
(42 7)
(43 42)
(41 4)
(5 43)
(44 7)
(45 44)
(8 45)
(6 46)
(46 47)
(47 9)
(48 8)
(49 48)
(10 49)
(9 50)
(50 51)
(51 11)
(52 10)
(53 52)
(12 53)
(11 54)
(54 55)
(55 13)
(56 12)
(57 56)
(14 57)
(13 58)
(58 59)
(59 15)
(60 14)
(61 60)
(16 61)
(15 62)
(62 63)
(63 17)
(64 16)
(65 64)
(18 65)
(17 66)
(66 67)
(67 19)
(68 20)
(69 68)
(18 69)
(21 70)
(70 71)
(71 19)
(72 21)
(73 72)
(22 73)
(20 74)
(74 75)
(75 23)
(76 22)
(77 76)
(24 77)
(23 78)
(78 79)
(79 25)
(24 80)
(80 81)
(82 25)
(83 82)
(81 26)
(27 83)
(84 27)
(85 84)
(28 85)
(26 86)
(86 87)
(87 29)
(88 28)
(89 88)
(30 89)
(29 90)
(90 91)
(91 31)
(31 92)
(92 93)
(94 30)
(95 94)
(93 0)
(2 95)
(6 96)
(97 6)
(98 99)
(29 26)
(26 24)
(24 22)
(11 9)
(9 100)
(21 19)
(101 0)
(17 15)
(19 17)
(0 31)
(31 29)
(13 11)
(15 13)
(22 21)
(100 97)
(99 101)
(102 4)
(1 103)
(4 1)
(96 102)
(103 98)
(7 104)
(105 7)
(106 107)
(28 27)
(27 25)
(25 23)
(10 8)
(8 108)
(20 18)
(109 2)
(16 14)
(18 16)
(2 30)
(30 28)
(12 10)
(14 12)
(23 20)
(108 105)
(107 109)
(110 5)
(3 111)
(5 3)
(104 110)
(111 106)
)

// concaveStart mixedStart nonFeatureStart
0 0 32
// internalStart flatStart openStart multipleStart
12 30 30 174
// normals

185
(
(0 -0 1)
(0 0 1)
(0 -0 1)
(-0 0 1)
(0 -0 1)
(0 -0 1)
(1 -3.178914e-05 -1.746656e-05)
(1 0 0)
(1 0 0)
(1 0 -1.746656e-05)
(1 0 0)
(1 0 0)
(-2.652854e-07 3.327926e-05 -1)
(0 0 -1)
(-2.652854e-07 0 -1)
(0 0 -1)
(0 -0 -1)
(0 0 -1)
(-0.3052099 3.169134e-05 0.9522851)
(-0.3052082 0 0.9522856)
(-0.3052091 0 0.9522854)
(-0.3052099 0 0.9522851)
(-0.3052082 0 0.9522856)
(-0.3052091 0 0.9522854)
(-0 0 1)
(0 -0 1)
(-0 0 1)
(0 -0 1)
(0 0 1)
(0 0 1)
(-0.2758064 0 0.9612132)
(-0.2758073 0 0.961213)
(-0.2758084 0 0.9612126)
(-0.2758064 0 0.9612132)
(-0.2758073 0 0.961213)
(-0.2758084 0 0.9612126)
(-0 0 1)
(0 -0 1)
(-0 0 1)
(0 -0 1)
(0 0 1)
(0 0 1)
(-0.3272014 0 0.9449546)
(-0.3272035 0 0.9449539)
(-0.3272014 0 0.9449546)
(-0.3272014 0 0.9449546)
(-0.3272035 0 0.9449539)
(-0.3272014 0 0.9449546)
(-0 0 1)
(0 -0 1)
(1.025898e-05 0 1)
(0 -0 1)
(0 0 1)
(1.025898e-05 0 1)
(0.481629 0 -0.8763752)
(0.4816261 0 -0.8763768)
(0.4816393 0 -0.8763696)
(0.481629 0 -0.8763752)
(0.4816261 0 -0.8763768)
(0.4816393 0 -0.8763696)
(0.08072215 0 -0.9967366)
(0.08072263 0 -0.9967366)
(0.08072329 0 -0.9967366)
(0.08072215 0 -0.9967366)
(0.08072263 0 -0.9967366)
(0.08072329 0 -0.9967366)
(0.9999439 0 -0.01059587)
(0.9999507 0 -0.009933696)
(0.9999507 0 -0.009933285)
(0.9999439 0 -0.01059587)
(0.9999507 0 -0.009933696)
(0.9999507 0 -0.009933285)
(0 0 1)
(0 -0 1)
(0 -0 1)
(0 -0 1)
(0 0 1)
(0 0 1)
(1 0 0)
(1 0 0)
(1 0 0)
(1 0 0)
(1 0 0)
(1 0 0)
(-0 0 1)
(0 -0 1)
(-0 0 1)
(0 -0 1)
(0 0 1)
(0 0 1)
(1 -0 0)
(1 0 0)
(1 0 0)
(1 0 0)
(1 0 0)
(1 -0 0)
(0 -1 0)
(0 -1 0)
(0 -1 0)
(0 -1 0)
(-0 -1 0)
(-0 -1 0)
(0 -1 0)
(0 -1 0)
(0 -1 0)
(0 -1 -0)
(0 -1 0)
(0 -1 -0)
(0 -1 -0)
(0 -1 0)
(0 -1 0)
(0 -1 0)
(0 -1 0)
(0 -1 0)
(0 -1 0)
(0 -1 0)
(0 -1 0)
(0 -1 0)
(0 -1 0)
(-0 -1 0)
(0 -1 0)
(-0 -1 0)
(0 -1 0)
(0 -1 0)
(0 -1 -0)
(0 -1 0)
(0 -1 -0)
(0 -1 -0)
(0 -1 0)
(0 -1 0)
(0 -1 0)
(0 -1 0)
(0 -1 0)
(0 -1 0)
(-0.3052079 -3.169136e-05 0.9522857)
(0 0 -1)
(-0.3052079 0 0.9522857)
(-0 -3.327926e-05 -1)
(0.08072329 0 -0.9967366)
(0.08072329 0 -0.9967366)
(0.9999439 0 -0.01059587)
(0.08072329 0 -0.9967366)
(0.9999439 0 -0.01059587)
(0 0 1)
(1 0 -0)
(0 0 1)
(1 -0 0)
(0 0 1)
(0 0 1)
(1 -0 0)
(0 0 1)
(1 0 -0)
(-0 0 1)
(1 0 -0)
(0 0 1)
(1 0 0)
(0 0 1)
(0 0 1)
(1 0 -0)
(0 0 1)
(1 0 0)
(0 0 1)
(1 3.178914e-05 0)
(1 0 -0)
(0 0 -1)
(1 0 -0)
(0 0 -1)
(1 0 0)
(0 0 -1)
(-0 3.576279e-05 1)
(0.4816277 -3.134165e-05 -0.8763759)
(0 0 1)
(0.4816277 0 -0.8763759)
(0 -3.576279e-05 1)
(0.4816277 3.134164e-05 -0.8763759)
(0.9999439 -6.357472e-05 -0.01059543)
(0.9999439 0 -0.01059543)
(0 0 1)
(0.9999439 6.357472e-05 -0.01059543)
(0 -0 1)
(1 0 0)
(1 0 0)
(0 0 1)
(1 0 0)
(0 0 1)
)

// normal volume types

185
(
0
0
0
0
0
0
0
0
0
0
0
0
0
0
0
0
0
0
0
0
0
0
0
0
0
0
0
0
0
0
0
0
0
0
0
0
0
0
0
0
0
0
0
0
0
0
0
0
0
0
0
0
0
0
0
0
0
0
0
0
0
0
0
0
0
0
0
0
0
0
0
0
0
0
0
0
0
0
0
0
0
0
0
0
0
0
0
0
0
0
0
0
0
0
0
0
0
0
0
0
0
0
0
0
0
0
0
0
0
0
0
0
0
0
0
0
0
0
0
0
0
0
0
0
0
0
0
0
0
0
0
0
0
0
0
0
0
0
0
0
0
0
0
0
0
0
0
0
0
0
0
0
0
0
0
0
0
0
0
0
0
0
0
0
0
0
0
0
0
0
0
0
0
0
0
0
0
0
0
0
0
0
0
0
0
)

// normalDirections

174
(
2{1}
2{1}
2{1}
2(1 -1)
2(1 -1)
2(1 -1)
2(1 -1)
2(1 -1)
2(1 -1)
2(1 -1)
2(1 -1)
2(1 -1)
2{1}
2{1}
2(1 -1)
2(1 -1)
2{1}
2(1 -1)
2(1 -1)
2(1 -1)
2(1 -1)
2{1}
2{1}
2{1}
2{1}
2{1}
2{1}
2(1 -1)
2(1 -1)
2(1 -1)
1(1)
1(1)
1(1)
1(1)
1(1)
1(1)
1(1)
1(1)
1(1)
1(1)
1(1)
1(1)
1(1)
1(1)
1(1)
1(1)
1(1)
1(1)
1(1)
1(1)
1(1)
1(1)
1(1)
1(1)
1(1)
1(1)
1(1)
1(1)
1(1)
1(1)
1(1)
1(1)
1(1)
1(1)
1(1)
1(1)
1(1)
1(1)
1(1)
1(1)
1(1)
1(1)
1(1)
1(1)
1(1)
1(1)
1(1)
1(1)
1(1)
1(1)
1(1)
1(1)
1(1)
1(1)
1(1)
1(1)
1(1)
1(1)
1(1)
1(1)
1(1)
1(1)
1(1)
1(1)
1(1)
1(1)
1(1)
1(1)
1(1)
1(1)
1(1)
1(1)
1(1)
1(1)
1(1)
1(1)
1(1)
1(1)
1(1)
1(1)
1(1)
1(1)
1(1)
1(1)
1(1)
1(1)
1(1)
1(1)
1(1)
1(1)
1(1)
1(1)
1(1)
1(1)
1(1)
1(1)
1(1)
1(1)
1(1)
1(1)
1(1)
1(1)
1(1)
1(1)
1(1)
1(1)
1(1)
1(1)
1(1)
1(1)
1(1)
1(1)
1(1)
1(1)
1(1)
1(1)
1(1)
1(1)
1(1)
1(1)
1(1)
1(1)
1(1)
1(1)
1(1)
1(1)
1(1)
1(1)
1(1)
1(1)
1(1)
1(1)
1(1)
1(1)
1(1)
1(1)
1(1)
1(1)
1(1)
1(1)
1(1)
1(1)
1(1)
1(1)
)

// edgeNormals

174
(
2(12 134)
2(135 136)
2(137 18)
2(138 66)
2(139 140)
2(141 142)
2(143 144)
2(145 146)
2(147 78)
2(148 149)
2(150 151)
2(152 90)
2(0 153)
2(154 155)
2(156 6)
2(157 158)
2(159 160)
2(161 162)
2(163 164)
2(165 166)
2(167 168)
2(169 170)
2(171 172)
2(173 174)
2(175 72)
2(176 177)
2(178 179)
2(180 84)
2(181 182)
2(183 184)
1(0)
1(1)
1(2)
1(3)
1(4)
1(5)
1(6)
1(7)
1(8)
1(9)
1(10)
1(11)
1(12)
1(13)
1(14)
1(15)
1(16)
1(17)
1(18)
1(19)
1(20)
1(21)
1(22)
1(23)
1(24)
1(25)
1(26)
1(27)
1(28)
1(29)
1(30)
1(31)
1(32)
1(33)
1(34)
1(35)
1(36)
1(37)
1(38)
1(39)
1(40)
1(41)
1(42)
1(43)
1(44)
1(45)
1(46)
1(47)
1(48)
1(49)
1(50)
1(51)
1(52)
1(53)
1(54)
1(55)
1(56)
1(57)
1(58)
1(59)
1(60)
1(61)
1(62)
1(63)
1(64)
1(65)
1(66)
1(67)
1(68)
1(69)
1(70)
1(71)
1(72)
1(73)
1(74)
1(75)
1(76)
1(77)
1(78)
1(79)
1(80)
1(81)
1(82)
1(83)
1(84)
1(85)
1(86)
1(87)
1(88)
1(89)
1(90)
1(91)
1(92)
1(93)
1(94)
1(95)
1(96)
1(97)
1(98)
1(99)
1(100)
1(100)
1(101)
1(102)
1(103)
1(104)
1(105)
1(105)
1(106)
1(106)
1(107)
1(107)
1(108)
1(109)
1(110)
1(111)
1(112)
1(112)
1(113)
1(114)
1(115)
1(116)
1(117)
1(118)
1(119)
1(119)
1(120)
1(121)
1(122)
1(123)
1(124)
1(124)
1(125)
1(125)
1(126)
1(126)
1(127)
1(128)
1(129)
1(130)
1(131)
1(131)
1(132)
1(133)
)

// featurePointNormals

32
(
3(0 153 104)
3(156 6 112)
3(159 160 123)
3(161 162 131)
3(163 164 111)
3(167 168 130)
3(12 134 96)
3(137 18 115)
3(20 24 120)
3(23 27 101)
3(26 30 120)
3(29 33 101)
3(32 36 126)
3(35 39 107)
3(38 42 124)
3(41 45 105)
3(44 48 124)
3(47 51 105)
3(169 170 122)
3(173 174 103)
3(54 63 122)
3(57 60 103)
3(138 66 100)
3(141 142 119)
3(175 72 100)
3(178 179 119)
3(143 144 99)
3(147 78 118)
3(180 84 118)
3(183 184 99)
3(148 149 125)
3(152 90 106)
)

// featurePointEdges

32
(
5(12 30 124 135 138)
5(14 32 36 146 147)
5(16 33 125 159 162)
5(17 35 39 170 171)
5(18 38 46 145 147)
5(20 41 47 169 171)
5(0 42 51 126 127)
5(2 44 48 150 151)
4(50 54 156 157)
4(53 57 132 133)
4(56 60 156 164)
4(59 63 132 140)
4(62 66 164 165)
4(65 69 140 141)
4(68 72 160 165)
4(71 75 136 141)
4(74 78 160 161)
4(77 81 136 137)
5(21 80 86 158 161)
5(23 83 89 134 137)
4(84 93 158 166)
4(87 90 134 142)
5(3 92 96 131 142)
5(5 95 99 155 166)
5(24 98 102 130 131)
5(26 101 104 154 155)
5(6 106 111 129 130)
5(8 107 108 153 154)
5(27 110 114 153 163)
5(29 113 117 129 139)
5(9 116 122 162 163)
5(11 119 120 138 139)
)

// regionEdges

144
(
30
31
32
33
34
35
36
37
38
39
40
41
42
43
44
45
46
47
48
49
50
51
52
53
54
55
56
57
58
59
60
61
62
63
64
65
66
67
68
69
70
71
72
73
74
75
76
77
78
79
80
81
82
83
84
85
86
87
88
89
90
91
92
93
94
95
96
97
98
99
100
101
102
103
104
105
106
107
108
109
110
111
112
113
114
115
116
117
118
119
120
121
122
123
124
125
126
127
128
129
130
131
132
133
134
135
136
137
138
139
140
141
142
143
144
145
146
147
148
149
150
151
152
153
154
155
156
157
158
159
160
161
162
163
164
165
166
167
168
169
170
171
172
173
)



// ************************************************************************* //
