/*--------------------------------*- C++ -*----------------------------------*\
| =========                 |                                                 |
| \\      /  F ield         | OpenFOAM: The Open Source CFD Toolbox           |
|  \\    /   O peration     | Version:  v2006                                 |
|   \\  /    A nd           | Website:  www.openfoam.com                      |
|    \\/     M anipulation  |                                                 |
\*---------------------------------------------------------------------------*/
FoamFile
{
    version     2.0;
    format      ascii;
    class       polyBoundaryMesh;
    location    "constant/polyMesh";
    object      boundary;
}
// * * * * * * * * * * * * * * * * * * * * * * * * * * * * * * * * * * * * * //

5
(
    inlet
    {
        type            patch;
        nFaces          60;
        startFace       65390;
    }
    outlet
    {
        type            patch;
        nFaces          60;
        startFace       65450;
    }
    wall1
    {
        type            wall;
        inGroups        1(wall);
        nFaces          550;
        startFace       65510;
    }
    atmosphere
    {
        type            patch;
        nFaces          550;
        startFace       66060;
    }
    defaultFaces
    {
        type            empty;
        inGroups        1(empty);
        nFaces          66000;
        startFace       66610;
    }
)

// ************************************************************************* //
