/*--------------------------------*- C++ -*----------------------------------*\
| =========                 |                                                 |
| \\      /  F ield         | OpenFOAM: The Open Source CFD Toolbox           |
|  \\    /   O peration     | Version:  v2006                                 |
|   \\  /    A nd           | Website:  www.openfoam.com                      |
|    \\/     M anipulation  |                                                 |
\*---------------------------------------------------------------------------*/
FoamFile
{
    version     2.0;
    format      ascii;
    class       dictionary;
    object      blockMeshDict;
}
// * * * * * * * * * * * * * * * * * * * * * * * * * * * * * * * * * * * * * //

scale   1;

xmin -10;
xmax 360;
ymin -32;
ymax 32;
zmin -10;
zmax 30;

dx 1.5;

Nx #calc "std::floor(($xmax - $xmin) / $dx)";
Ny #calc "std::floor(($ymax - $ymin) / $dx)";
Nz #calc "std::floor(($zmax - $zmin) / $dx)";

vertices
(
    ($xmin $ymin $zmin)
    ($xmax $ymin $zmin)
    ($xmax $ymax $zmin)
    ($xmin $ymax $zmin)

    ($xmin $ymin $zmax)
    ($xmax $ymin $zmax)
    ($xmax $ymax $zmax)
    ($xmin $ymax $zmax)
);

blocks
(
    hex (0 1 2 3 4 5 6 7) ($Nx $Ny $Nz) simpleGrading (1 1 1)
);

edges
(
);


boundary
(
    sides
    {
        type overset;
        faces
        (
	    (2 6 5 1)
            (1 5 4 0)
            (3 7 6 2)
            (0 4 7 3)
            (0 3 2 1)
            (4 5 6 7)
        );
    }
);

// ************************************************************************* //
