/*--------------------------------*- C++ -*----------------------------------*\
| =========                 |                                                 |
| \\      /  F ield         | OpenFOAM: The Open Source CFD Toolbox           |
|  \\    /   O peration     | Version:  v2006                                 |
|   \\  /    A nd           | Website:  www.openfoam.com                      |
|    \\/     M anipulation  |                                                 |
\*---------------------------------------------------------------------------*/
FoamFile
{
    version     2.0;
    format      ascii;
    class       dictionary;
    object      snappyHexMeshDict;
}
// * * * * * * * * * * * * * * * * * * * * * * * * * * * * * * * * * * * * * //

// Which of the steps to run
castellatedMesh true;
snap            true;
addLayers       false;


// Geometry. Definition of all surfaces. All surfaces are of class
// searchableSurface.
// Surfaces are used
// - to specify refinement for any mesh cell intersecting it
// - to specify refinement for any mesh cell inside/outside/near
// - to 'snap' the mesh boundary to the surface
geometry
{
    actuel2.stl
    {
	type triSurfaceMesh;
	name actuel2;
    }

    interface
    {
        type   searchableBox;
        min    (-99.0 -99  0.8);
        max    (21.0   99  0.97);
    }

}


// Settings for the castellatedMesh generation.
castellatedMeshControls
{

	maxLocalCells  100000;
	maxGlobalCells 2000000;

	minRefinementCells 0;

	maxLoadUnbalance 0.10;

	nCellsBetweenLevels 3; //Important

	features
	(
//features
	);

	resolveFeatureAngle 180;
	planarAngle 30;
	allowFreeStandingZoneFaces true;
	locationInMesh (10 -0.05 1); //Important	

	refinementSurfaces
	{
		actuel2
		{
			level (0 0);
		}
	}

	refinementRegions
	{
		actuel2
		{
			mode distance;
			levels ((0.15 1));
		}
                interface
                {
                        mode inside;
                        levels ((1 1));
                }
	}
}

// Settings for the snapping.
snapControls
{
    //- Number of patch smoothing iterations before finding correspondence
    //  to surface
    nSmoothPatch 3;

    //- Relative distance for points to be attracted by surface feature point
    //  or edge. True distance is this factor times local
    //  maximum edge length.
    tolerance 1.0;

    //- Number of mesh displacement relaxation iterations.
    nSolveIter 300;

    //- Maximum number of snapping relaxation iterations. Should stop
    //  before upon reaching a correct mesh.
    nRelaxIter 5;


    // Feature snapping

        //- Number of feature edge snapping iterations.
        //  Leave out altogether to disable.
        nFeatureSnapIter 10;

        //- Detect (geometric) features by sampling the surface (default=false)
        implicitFeatureSnap false;

        //- Use castellatedMeshControls::features (default = true)
        explicitFeatureSnap true;

	multiRegionFeatureSnap false;
}



// Settings for the layer addition.
addLayersControls
{
    // Are the thickness parameters below relative to the undistorted
    // size of the refined cell outside layer (true) or absolute sizes (false).
    relativeSizes true;

    // Per final patch (so not geometry!) the layer information
    layers
    {
        actuel2
        {
            nSurfaceLayers 5;
        }
    }

    // Expansion factor for layer mesh
    expansionRatio 1.5;

    // Wanted thickness of final added cell layer. If multiple layers
    // is the thickness of the layer furthest away from the wall.
    // Relative to undistorted size of cell outside layer.
    // See relativeSizes parameter.
    finalLayerThickness 2.0;

    // Minimum thickness of cell layer. If for any reason layer
    // cannot be above minThickness do not add layer.
    // Relative to undistorted size of cell outside layer.
    // See relativeSizes parameter.
    minThickness 0.0001;

    // If points get not extruded do nGrow layers of connected faces that are
    // also not grown. This helps convergence of the layer addition process
    // close to features.
    // Note: changed(corrected) w.r.t 1.7.x! (didn't do anything in 1.7.x)
    nGrow 5;


    // Advanced settings

    // When not to extrude surface. 0 is flat surface, 90 is when two faces
    // are perpendicular
    featureAngle 90;

    // Maximum number of snapping relaxation iterations. Should stop
    // before upon reaching a correct mesh.
    nRelaxIter 5;

    // Stop layer growth on highly warped cells
    maxFaceThicknessRatio 1.5;

    // Smooth layer thickness over surface patches
    nSmoothThickness 10;


    //- Use displacementMotionSolver to shrink mesh
    meshShrinker displacementMotionSolver;

    //- Use laplacian for shrinking
    solver displacementLaplacian;

    displacementLaplacianCoeffs
    {
        diffusivity quadratic inverseDistance (cylindre);
    }


    // Create buffer region for new layer terminations
    nBufferCellsNoExtrude 0;

    // Overall max number of layer addition iterations. The mesher will exit
    // if it reaches this number of iterations; possibly with an illegal
    // mesh.
    nLayerIter 50;
}



// Generic mesh quality settings. At any undoable phase these determine
// where to undo.
meshQualityControls
{
    #include "meshQualityDict"
    
    relaxed
    {
	maxNonOrtho 		30;
	maxBoundarySkewness 	20;
	maxInternalSkewness	90;
	maxConcave		90;
    }    

    // Advanced

    //- Number of error distribution iterations
    nSmoothScale 4;
    //- Amount to scale back displacement at error points
    errorReduction 0.75;
}


// Advanced

// Merge tolerance. Is fraction of overall bounding box of initial mesh.
// Note: the write tolerance needs to be higher than this.
mergeTolerance 1e-7;


// ************************************************************************* //
