/*---------------------------------------------------------------------------*\
| =========                 |                                                 |
| \\      /  F ield         | OpenFOAM: The Open Source CFD Toolbox           |
|  \\    /   O peration     | Version:  v2006                                 |
|   \\  /    A nd           | Website:  www.openfoam.com                      |
|    \\/     M anipulation  |                                                 |
\*---------------------------------------------------------------------------*/
FoamFile
{
    version     2.0;
    format      ascii;
    class       dictionary;
    location    "constant";
    object      waveProperties;
}
// * * * * * * * * * * * * * * * * * * * * * * * * * * * * * * * * * * * * * //

    waveType         irregular;

    genAbs           1;

    absDir           0.0;

    nPaddles         1;

    tSmooth          2.0;

    wavePeriods
    500
    (
2.767443090425034
2.7591023374603254
2.750811709551417
2.7425707562004646
2.734379032291956
2.7262360980125617
2.7181415187724243
2.710094865127841
2.702095712705317
2.6941436421269565
2.6862382389371735
2.678379093530684
2.67056580108176
2.6627979614747175
2.655075179235618
2.647397063465149
2.6397632277726686
2.6321732902113917
2.6246268732146834
2.6171236035334515
2.6096631121746072
2.602245034340575
2.594869009369834
2.587534680678462
2.580241695702677
2.5729897058423363
2.565778366405398
2.558607336553304
2.5514762792472805
2.544384861195535
2.537332752801327
2.530319628111907
2.5233451647682927
2.5164090439558775
2.5095109503558506
2.5026505720974144
2.49582760071078
2.489041731080938
2.4822926614021696
2.475580093133307
2.468903730953711
2.4622632827199578
2.4556584594232316
2.449088975147391
2.442554547027713
2.4360548952102916
2.429589742812089
2.4231588158816146
2.4167618433602294
2.4103985570440627
2.404068691546529
2.3977719842614307
2.3915081753266434
2.3852770075883662
2.3790782265659303
2.3729115804171546
2.3667768199042385
2.3606736983601846
2.3546019716557356
2.3485613981668227
2.342551738742515
2.3365727566734558
2.3306242176607856
2.3247058897855344
2.318817543478482
2.3129589514904736
2.307129888863186
2.3013301329003335
2.295559463139307
2.289817661323237
2.28410451137348
2.2784197993625113
2.2727633134872214
2.2671348440426127
2.2615341833958813
2.2559611259608876
2.2504154681729984
2.244897008464303
2.2394055472391887
2.23394088685028
2.2285028315747217
2.223091187590816
2.2177057629549912
2.212346367579108
2.2070128132080997
2.20170491339792
2.196422483493824
2.191165340608956
2.185933303603236
2.180726193062561
2.1755438312782944
2.170386042227049
2.165252651550756
2.1601434865370224
2.1550583760997544
2.149997150760065
2.144959642627443
2.1399456853811896
2.1349551142521137
2.129987766004481
2.125043478918218
2.120122092771361
2.1152234488227477
2.1103473897949496
2.1054937598574415
2.1006624046099986
2.0958531710663255
2.091065907637907
2.086300464118081
2.0815566916663277
2.076834442792776
2.072133571342915
2.0674539324825143
2.062795382682754
2.058157779705545
2.0535409825890567
2.048944851633432
2.0443692483866966
2.0398140356308594
2.0352790773681906
2.0307642388076923
2.0262693863517387
2.021794387582903
2.0173391112509513
2.0129034272600097
2.008487206655904
2.0040903216136616
1.999712645425177
1.9953540524870426
1.9910144182885345
1.9866936193997562
1.9823915334599371
1.9781080391658796
1.9738430162605605
1.9695963455218752
1.9653679087515297
1.9611575887640729
1.9569652693760726
1.952790835395427
1.9486341726108152
1.94449516778128
1.9403737086259443
1.93626968381386
1.9321829829539796
1.928113496585262
1.9240611161668968
1.9200257340686557
1.916007243561363
1.9120055388074861
1.9080205148518434
1.904052067612428
1.9001000938713484
1.8961644912658755
1.8922451582796092
1.8883419942337454
1.884454899278458
1.8805837743843834
1.8767285213342104
1.872889042714374
1.86906524190685
1.8652570230810517
1.8614642911858215
1.8576869519415264
1.853924911832243
1.8501780780980406
1.8464463587273583
1.842729662449472
1.8390278987270543
1.835340977748821
1.83166881042227
1.828011308366503
1.8243683839051368
1.8207399500592956
1.8171259205406889
1.8135262097447729
1.809940732743989
1.8063694052810866
1.8028121437625217
1.799268865251936
1.795739487463709
1.7922239287565918
1.7887221081274074
1.7852339452048338
1.7817593602432515
1.7782982741166686
1.7748506083127131
1.7714162849266966
1.7679952266557464
1.7645873567930046
1.7611925992218973
1.7578108784104638
1.7544421194057582
1.7510862478283096
1.7477431898666482
1.7444128722718952
1.7410952223524105
1.7377901679685064
1.7344976375272152
1.7312175599771247
1.7279498648032618
1.7246944820220447
1.7214513421762816
1.718220376330235
1.7150015160647345
1.7117946934723494
1.708599841152611
1.7054168922072928
1.7022457802357391
1.6990864393302485
1.6959388040715087
1.6928028095240781
1.6896783912319246
1.686565485214006
1.6834640279599036
1.680373956425504
1.6772952080287262
1.6742277206452978
1.6711714326045741
1.6681262826854086
1.6650922101120618
1.6620691545501605
1.6590570561026963
1.6560558553060714
1.653065493126185
1.650085910954562
1.6471170506045247
1.644158854307404
1.6412112647087949
1.6382742248648463
1.6353476782385976
1.6324315686963478
1.6295258405040682
1.6266304383238517
1.6237453072103991
1.6208703926075438
1.618005640344813
1.6151509966340254
1.612306408065924
1.6094718216068469
1.606647184595429
1.603832444739344
1.6010275501120732
1.5982324491497166
1.5954470906478304
1.592671423758301
1.589905397986251
1.587148963186976
1.5844020695629164
1.5816646676606565
1.5789367083679589
1.5762181429108242
1.5735089228505872
1.5708090000810389
1.5681183268255785
1.565436855634396
1.5627645393816827
1.5601013312628706
1.557447184791899
1.5548020537985117
1.5521658924255777
1.5495386551264414
1.546920296662301
1.5443107720996117
1.5417100368075125
1.5391180464552847
1.536534757009833
1.5339601247331904
1.5313941061800507
1.528836658195324
1.5262877379117195
1.5237473027473472
1.5212153104033497
1.5186917188615523
1.5161764863821394
1.5136695715013546
1.5111709330292196
1.508680530047281
1.5061983219063741
1.5037242682244139
1.5012583288842019
1.4988004640312615
1.4963506340716881
1.4939087996700233
1.491474921747152
1.4890489614782134
1.4866308802905415
1.4842206398616158
1.4818182021170416
1.4794235292285403
1.4770365836119685
1.4746573279253483
1.472285725066921
1.4699217381732197
1.4675653306171585
1.4652164660061398
1.462875108180182
1.460541221210064
1.4582147693954863
1.4558957172632527
1.4535840295654645
1.4512796712777365
1.4489826075974284
1.4466928039418918
1.4444102259467348
1.4421348394641027
1.4398666105609765
1.437605505517484
1.435351490825231
1.433104533185644
1.4308645995083313
1.4286316569094597
1.4264056727101437
1.4241866144348514
1.421974449809826
1.4197691467615212
1.4175706734150497
1.4153789980926503
1.4131940893121626
1.4110159157855222
1.4088444464172674
1.4066796503030576
1.4045214967282091
1.4023699551662405
1.4002249952774353
1.3980865869074146
1.3959547000857249
1.3938293050244361
1.3917103721167567
1.3895978719356574
1.3874917752325093
1.3853920529357333
1.3832986761494637
1.3812116161522217
1.3791308443956025
1.3770563325029732
1.3749880522681825
1.3729259756542829
1.3708700747922637
1.368820321979796
1.3667766896799876
1.364739150520149
1.3627076772905737
1.3606822429433258
1.3586628205910387
1.3566493835057265
1.354641905117604
1.3526403590139189
1.3506447189377928
1.3486549587870726
1.346671052613193
1.344692974620049
1.3427206991628775
1.3407542007471476
1.3387934540274642
1.336838433806478
1.3348891150338063
1.3329454728049637
1.3310074823603002
1.3290751190839503
1.327148358502792
1.3252271762854118
1.323311548241082
1.3214014503187435
1.319496858606002
1.3175977493281272
1.315704098847066
1.3138158836604599
1.3119330804006732
1.3100556658338303
1.3081836168588583
1.3063169105065402
1.3044555239385751
1.3025994344466485
1.3007486194515054
1.2989030565020392
1.2970627232743794
1.2952275975709946
1.2933976573197987
1.2915728805732671
1.2897532455075573
1.2879387304216405
1.286129313736439
1.284324973993969
1.282525689856495
1.280731440105686
1.2789422036417828
1.2771579594827713
1.2753786867635621
1.273604364735176
1.2718349727639382
1.2700704903306792
1.2683108970299408
1.2665561725691898
1.2648062967680371
1.2630612495574651
1.2613210109790607
1.259585561184253
1.25785488043356
1.256128949095839
1.254407747647546
1.2526912566719977
1.250979456858643
1.249272329002337
1.2475698540026245
1.2458720128630274
1.244178786690337
1.2424901566939142
1.2408061041849934
1.239126610575995
1.2374516573798398
1.2357812262092704
1.2341152987761803
1.232453856890944
1.2307968824617572
1.2291443574939793
1.2274962640894813
1.2258525844460002
1.2242133008564984
1.2225783957085277
1.2209478514835972
1.2193216507565496
1.2176997761949397
1.2160822105584173
1.214468936698119
1.2128599375560596
1.211255196164532
1.2096546956455112
1.2080584192100619
1.2064663501577513
1.204878471876067
1.20329476783984
1.2017152216106697
1.2001398168363566
1.1985685372503372
1.1970013666711241
1.1954382890017519
1.1938792882292242
1.1923243484239678
1.1907734537392896
1.189226588410839
1.1876837367560735
1.1861448831737285
1.184610012143291
1.183079108224479
1.1815521560567224
1.180029140358651
1.1785100459275826
1.1769948576390183
1.1754835604461413
1.1739761393793178
1.1724725795456017
1.1709728661282468
1.1694769843862178
1.1679849196537087
1.1664966573396625
1.1650121829272966
1.1635314819736295
1.1620545401090139
1.160581343036671
1.1591118765322286
1.1576461264432647
1.1561840786888522
1.154725719259108
1.1532710342147465
1.1518200096866338
1.1503726318753482
1.1489288870507424
1.14748876155151
1.1460522417847525
1.1446193142255545
1.1431899654165567
1.1417641819675364
1.140341950554989
1.1389232579217117
1.137508090876393
1.1360964362932038
1.1346882811113908
1.1332836123348737
1.1318824170318464
1.1304846823343797
1.129090395438026
1.1276995436014312
1.1263121141459436
1.1249280944552302
1.1235474719748941
1.1221702342120956
1.1207963687351732
1.1194258631732716
1.1180587052159705
1.1166948826129137
1.1153343831734461
1.1139771947662485
1.1126233053189776
1.1112727028179084
1.1099253753075784
1.108581310890435
1.1072404977264851
1.1059029240329479
1.1045685780839094
1.1032374482099796
    );

    waveHeights
    500
    (
0.0036455474026403766
0.0037227616719307916
0.003800077231052712
0.0038774621870693825
0.0039548850405903505
0.004032314712004288
0.004109720566119063
0.004187072435228761
0.004264340640630699
0.004341496012618024
0.004418509908976255
0.004495354232014563
0.004572001444164351
0.004648424582179858
0.004724597269976976
0.004800493730147812
0.004876088794189932
0.004951357911489916
0.005026277157101976
0.005100823238362791
0.005174973500384348
0.005248705930466734
0.005321999161473237
0.005394832474209878
0.00546718579885164
0.005539039715457426
0.005610375453615327
0.005681174891259598
0.0057514205527001904
0.0058210956059050025
0.005890183859074548
0.005958669756548001
0.006026538374078744
0.006093775413516787
0.006160367196934668
0.006226300660232339
0.006291563346255869
0.0063561433974636174
0.006420029548172749
0.006483211116417798
0.006545677995452146
0.006607420644922109
0.006668430081742394
0.006728697870700687
0.006788216114817952
0.006846977445490238
0.00690497501243651
0.006962202473476228
0.007018653984159247
0.007074324187269769
0.007129208202224887
0.007183301614387598
0.007236600464312915
0.007289101236945029
0.007340800850782455
0.007391696647027217
0.007441786378733252
0.007491068199968541
0.0075395406550043485
0.00758720266754446
0.007634053530006411
0.00768009289286591
0.007725320754074998
0.007769737448563873
0.0078133436378354
0.007856140299660965
0.007898128717885458
0.007939310472348743
0.00797968742893028
0.008019261729723127
0.008058035783342847
0.00809601225537654
0.008133194058976556
0.008169584345603054
0.008205186495919203
0.008240004110842213
0.008274041002753143
0.008307301186867976
0.00833978887277213
0.008371508456120114
0.008402464510501896
0.008432661779477067
0.008462105168777656
0.008490799738680227
0.008518750696547525
0.008545963389539755
0.00857244329749536
0.008598196025980883
0.008623227299509331
0.00864754295492633
0.008671148934963032
0.008694051281954707
0.008716256131723783
0.008737769707625815
0.008758598314756996
0.00877874833432138
0.008798226218156164
0.008817038483413074
0.00883519170739395
0.008852692522538388
0.008869547611561395
0.008885763702738787
0.00890134756533808
0.008916306005192604
0.008930645860416387
0.008944373997257473
0.0089574973060872
0.00897002269752296
0.008981957098681945
0.008993307449563366
0.009004080699556598
0.009014283804072725
0.00902392372129689
0.009033007409058965
0.0090415418218199
0.009049533907771282
0.009056990606045508
0.009063918844034036
0.009070325534811269
0.009076217574661462
0.009081601840706234
0.009086485188630226
0.009090874450502415
0.009094776432690705
0.009098197913867392
0.009101145643103136
0.009103626338047077
0.009105646683190883
0.0091072133282143
0.00910833288641014
0.009109011933186344
0.009109257004643039
0.009109074596222426
0.009108471161429368
0.009107453110620686
0.009106026809860989
0.00910419857984322
0.009101974694871841
0.009099361381906739
0.009096364819666046
0.009092991137785977
0.00908924641603585
0.009085136683586573
0.009080667918330872
0.009075846046253486
0.009070676940849778
0.00906516642259104
0.009059320258434983
0.009053144161379862
0.009046643790060633
0.009039824748385803
0.009032692585213446
0.009025252794064997
0.009017510812875445
0.009009472023778654
0.009001141752926423
0.008992525270340062
0.008983627789793253
0.00897445446872501
0.008965010408181477
0.008955300652785596
0.008945330190733325
0.00893510395381553
0.008924626817464346
0.008913903600823114
0.008902939066838792
0.008891737922375994
0.008880304818351606
0.008868644349889179
0.008856761056492147
0.008844659422235064
0.008832343875971984
0.008819818791561239
0.008807088488105793
0.008794157230208445
0.008781029228241108
0.008767708638627532
0.008754199564138709
0.008740506054200325
0.008726632105211643
0.008712581660875162
0.00869835861253645
0.008683966799533586
0.008669410009555652
0.00865469197900973
0.00863981639339584
0.008624786887689367
0.008609607046730475
0.008594280405620006
0.00857881045012143
0.00856320061706841
0.00854745429477755
0.00853157482346591
0.008515565495672906
0.008499429556686214
0.008483170204971309
0.008466790592604273
0.008450293825707554
0.008433682964888367
0.008416961025679341
0.008400130978981225
0.008383195751507273
0.008366158226229074
0.008349021242823553
0.008331787598120862
0.008314460046552955
0.008297041300602593
0.008279534031252525
0.00826194086843467
0.008244264401479103
0.00822650717956257
0.008208671712156423
0.008190760469473759
0.008172775882915604
0.008154720345515936
0.008136596212385456
0.008118405801153897
0.008100151392410762
0.008081835230144342
0.008063459522178879
0.008045026440609776
0.0080265381222367
0.008007996668994493
0.007989404148381788
0.007970762593887215
0.007952074005413102
0.007933340349696599
0.007914563560728139
0.007895745540167124
0.007876888157754834
0.007857993251724387
0.00783906262920778
0.007820098066639919
0.0078011013101595235
0.00778207407600696
0.0077630180509188655
0.0077439348925195505
0.007724826229709148
0.007705693663048452
0.007686538765140407
0.007667363081008253
0.007648168128470232
0.007628955398510908
0.007609726355649001
0.00759048243830177
0.0075712250591458965
0.007551955605474866
0.007532675439552838
0.007513385898964957
0.007494088296964162
0.007474783922814408
0.0074554740421303705
0.007436159897213574
0.0074168427073849725
0.007397523669313963
0.007378203957343852
0.007358884723813779
0.0073395670993770664
0.007320252193316074
0.007300941093853471
0.007281634868460029
0.007262334564158882
0.007243041207826288
0.00722375580648891
0.007204479347617613
0.007185212799417832
0.007165957111116446
0.007146713213245287
0.007127482017921191
0.0071082644191227
0.0070890612929633565
0.007069873497961693
0.007050701875307846
0.007031547249126897
0.007012410426738923
0.006993292198915762
0.006974193340134581
0.006955114608828175
0.006936056747632131
0.006917020483628781
0.0068980065285880405
0.0068790155792051106
0.006860048317335106
0.006841105410224621
0.006822187510740228
0.0068032952575940095
0.006784429275566052
0.006765590175724045
0.006746778555639884
0.00672799499960343
0.006709240078833343
0.0066905143516851045
0.006671818363856206
0.006653152648588546
0.006634517726868059
0.006615914107621616
0.0065973422879112165
0.006578802753125504
0.006560295977168619
0.006541822422646434
0.0065233825410502015
0.006504976772937628
0.006486605548111411
0.006468269285795255
0.006449968394807426
0.006431703273731841
0.0064134743110867126
0.0063952818854908335
0.006377126365827445
0.006359008111405797
0.006340927472120372
0.0063228847886078335
0.0063048803924016855
0.006286914606084729
0.006268987743439298
0.006251100109595295
0.006233252001176112
0.006215443706442376
0.006197675505433621
0.006179947670107889
0.006162260464479254
0.006144614144753335
0.006127008959460813
0.006109445149588973
0.006091922948711295
0.006074442583115105
0.006057004271927354
0.006039608227238501
0.006022254654224562
0.006004943751267312
0.005987675710072698
0.005970450715787466
0.0059532689471140455
0.005936130576423683
0.005919035769867867
0.005901984687488087
0.005884977483323901
0.005868014305519387
0.005851095296427949
0.005834220592715541
0.005817390325462309
0.005800604620262687
0.005783863597323948
0.005767167371563237
0.0057505160527031324
0.00573390974536572
0.005717348549165224
0.005700832558799201
0.0056843618641383205
0.005667936550314763
0.005651556697809245
0.005635222382536685
0.005618933675930534
0.0056026906450258
0.005586493352540767
0.005570341856957451
0.005554236212600773
0.005538176469716502
0.005522162674547982
0.005506194869411638
0.005490273092771298
0.005474397379311341
0.005458567760008689
0.005442784262203669
0.005427046909669732
0.005411355722682091
0.005395710718085243
0.005380111909359433
0.005364559306686059
0.005349052917012028
0.005333592744113077
0.005318178788656093
0.0053028110482604375
0.005287489517558265
0.005272214188253899
0.005256985049182235
0.005241802086366208
0.005226665283073334
0.005211574619871343
0.005196530074682891
0.005181531622839416
0.005166579237134101
0.005151672887873982
0.005136812542931198
0.005121998167793432
0.005107229725613498
0.005092507177258145
0.005077830481356052
0.005063199594345025
0.005048614470518437
0.005034075062070908
0.00501958131914322
0.005005133189866495
0.00499073062040565
0.004976373555002136
0.004962061936015967
0.004947795703967052
0.004933574797575838
0.004919399153803289
0.004905268707890195
0.004891183393395826
0.004877143142235931
0.00486314788472013
0.004849197549588648
0.004835292064048465
0.004821431353808834
0.004807615343116212
0.004793843954788609
0.004780117110249356
0.0047664347295603
0.004752796731454435
0.00473920303336799
0.004725653551471964
0.0047121482007031435
0.004698686894794566
0.004685269546305484
0.0046718960666508125
0.0046585663661300805
0.004645280353955874
0.0046320379382818015
0.004618839026229973
0.004605683523918023
0.004592571336485642
0.0045795023681206755
0.004566476522084757
0.0045534937007385015
0.004540553805566267
0.004527656737200481
0.00451480239544554
0.004501990679301307
0.004489221486986187
0.004476494715959799
0.004463810262945258
0.00445116802395106
0.004438567894292585
0.004426009768613226
0.004413493540905134
0.004401019104529605
0.004388586352237103
0.004376195176186932
0.004363845467966552
0.004351537118610552
0.0043392700186192885
0.0043270440579771885
0.004314859126170723
0.0043027151122060625
0.004290611904626404
0.004278549391528997
0.004266527460581862
0.004254545999040195
0.004242604893762483
0.0042307040312263245
0.004218843297543961
0.0042070225784775275
0.00419524175945402
0.004183500725579986
0.004171799361655949
0.0041601375521905706
0.004148515181414545
0.004136932133294228
0.004125388291545031
0.004113883539644551
0.004102417760845465
0.004090990838188176
0.004079602654513218
0.004068253092473438
0.004056942034545946
0.004045669363043833
0.004034434960127662
0.004023238707816762
0.004012080488000274
0.0040009601824480216
0.003989877672821141
0.003978832840682524
0.003967825567507051
0.00395685573469164
0.0039459232235650775
0.003935027915397672
0.00392416969141072
0.003913348432785782
0.003902564020673768
0.003891816336203865
0.003881105260492258
0.0038704306746507023
0.0038597924597949147
0.0038491904970527962
0.0038386246675724857
0.0038280948525302567
0.003817600933138258
0.0038071427906520823
0.0037967203063781966
0.0037863333616812056
0.0037759818379909725
0.0037656656168096
0.0037553845797182513
0.003745138608383834
0.0037349275845655477
0.0037247513901212973
0.0037146099070139585
0.0037045030173175147
    );

    wavePhases
    500
    (
3.5939684715608142
5.002297231018263
0.8389183999728633
2.1457172325879372
3.3511531955265625
3.0319914306112605
3.552006673306398
4.099322282020868
1.3268230614214322
2.400042115800883
5.12483810803094
2.598678325538942
1.8623720024636234
1.9713054019869927
3.2045669083456776
2.439063685045276
0.9327185186227397
3.969244512415605
1.010783766315799
2.5798612394706364
5.222051667873009
0.682713707650915
1.5473401020184185
3.0549206162945675
3.52796693417082
3.87319382308711
0.05319558659682227
2.500505659611806
4.646587202242606
3.6430971119733586
0.19241787722778267
4.593157016838342
3.4374797148168907
1.3422560913941421
4.202537880011541
2.7700699677555964
1.6101668334309114
2.6231094573372173
5.070363020212755
5.659776378858042
5.264412863061283
4.394945436250126
4.705972818159487
2.13851415373297
5.195774385459735
3.0284089971855224
2.3331554185715553
1.8409393857818914
0.9093134233350887
3.045013000090446
2.290637956807912
4.885663862726833
5.529447007087154
3.4328061558347804
0.9365338486539292
3.142092961491667
4.779629372975229
3.0170031991026574
4.67725506685278
2.808601624086753
0.33135892225855773
3.4730070487068496
3.7954771506064757
4.408780632390634
3.9109209126673785
5.8083460042859
5.761670585813201
3.42225733606841
0.6970034081779888
1.0775039345420725
2.0314430938308554
2.7438905123535022
4.369577067982586
0.45749545063087327
2.226620034486428
3.24391532175538
0.8910571269757249
6.2754740508516
5.317673644355799
3.6572937992634857
3.6273635871710286
0.21230355706251747
1.8577038127988585
4.566174864392687
3.9984145186190774
3.281868116111331
3.164020730758565
3.2554731360342806
4.091364837491257
2.8879964428858145
1.237103409253551
1.7040438240804108
1.0530624525865036
0.07147357704972751
0.4376407032805632
1.1674519991946848
0.8483244089736853
2.07304368216751
2.158661932064163
4.941091804188297
2.422946957426185
2.1257290521744636
3.4839348912010375
6.224928631509269
2.0655215571635686
5.916117341841369
3.744683417256162
3.838176348087693
3.9606511429763005
5.677356224180219
5.775308031441258
5.849474188584495
1.2657346121465523
4.720372029758594
5.675997298736021
0.8893846117310061
1.1200417333911676
1.9483534547203274
0.3556458361710083
0.37579910189106547
0.12941857636645251
2.4455899536819654
0.40538212488569936
4.052620069000757
2.6656680191118034
4.0404629304364175
2.299998930283071
1.7246882979054081
1.0097438113243047
2.5874019711559284
5.166786540599939
3.7141815522024952
1.539898281342846
0.11522046369735078
4.919884621314364
1.7068360000262361
2.498691122553356
1.5341120882258619
5.716057796117449
3.984711922941844
1.678460342263223
2.440535908291543
5.989412303516436
0.8414560540768156
6.0668790147371165
5.560684612273271
2.5426545191589476
5.873302001026373
4.065871833237713
1.8020253119711234
3.7392636862402804
6.216924042139763
4.971856822747756
5.205237034611549
0.7855552285018995
0.8648910211276126
4.650570199211046
4.572415989900818
2.2172118811120956
1.9768281530082765
2.6548284954836534
4.013054418291762
1.5186520567509603
1.1133273115175426
2.5458550787676306
5.275511508867305
2.8634999956346534
4.752447619738993
2.435773954403265
5.1634960053916705
1.6839379947239632
2.399106659374385
3.8448738001767397
5.025971518472302
0.8865367931925111
4.315513644362811
0.5615138454193542
0.3284470879326066
5.814817171978773
1.0810159043560255
4.8060588605367105
4.086985097932204
0.6971601264217195
1.7955773889989406
3.6902536260150405
5.864169405300295
5.621830960073203
0.8729360826124215
0.7654503149646352
3.55404013135398
0.9583042186755591
1.5964330417798767
5.446568158804423
2.62905195375584
2.6252801278451616
2.315405999211482
2.576825251031274
5.409322279490618
0.03214277648715151
0.5948177609311971
4.469508574180953
4.346857716467905
4.107200313561342
0.5558957289692847
0.14805849046294434
0.9457559014935717
4.356096426185516
1.32595182515155
0.4112622615969824
4.805118551228589
5.536963525728246
1.4495928727340817
4.3507044503651695
0.7481724748181725
1.9714834027274133
2.1926850431845666
3.473297600220756
0.47729980583701503
3.2632108167965086
2.5583038709011103
4.423422275095861
5.198103781419735
0.8940523179561849
0.48363757679102115
5.8689948276034825
4.224967511065262
1.2350334722340688
4.23448314174536
0.5003279332902545
4.456227826986466
0.47865018825980854
3.360135161548023
4.843525628859222
4.0457502546906845
2.863318116251934
5.349946295006941
1.626839222625677
2.8809257366262653
3.1205670071527614
1.377354105368421
5.881615292749051
1.4853667660618468
3.281816677461207
2.2283210447554045
0.8666727383333264
3.5886459978771303
4.294531545907979
3.660862670438351
3.135564366138645
1.3402040435912626
0.314415685425418
4.27915381515887
0.5453102802365482
5.452249486194369
0.567393694771997
2.18839282373242
3.8295994588638638
3.660668283846565
4.004558560337122
2.641321291186456
0.880564313822107
3.7543999147413127
2.209154728679321
2.368810279845118
1.0982461150995668
0.4141160016141774
4.656402934794408
2.927673529699377
6.043993294092449
1.6681188855818079
3.725208502656051
2.661648235395375
0.08235573313073
5.8333753413922365
5.4645095977605465
0.1502164449688216
3.240646887738295
5.8532040567223005
5.1317677232725405
1.4554208036081417
0.5316018098808462
4.9697840953401835
2.8634533071441233
1.1622647250810632
5.263935490406512
3.0532333400720666
4.71790483036629
1.010215002222261
1.0556010437863186
1.311812747874183
1.5127341315350022
3.4417019860206817
5.733812560688651
1.5074518194255777
0.0461265087817717
5.8982384139478405
0.48426772863332984
1.6576196068288362
2.489080256065075
6.16143914138006
0.7584579178807278
2.551538089510872
4.177156366312239
4.619493019919799
5.726002559614
2.7406218718038002
2.23139161645159
0.4490569466618663
2.645084134586642
3.61582365436304
5.51650623894917
4.815034180460882
2.1616954402398867
2.659146483559995
4.460165028843683
3.2959742957391827
0.921375869636684
0.8967137573738104
6.035484089807437
1.3462611972030512
5.190580675545618
4.998384906375463
5.52206069020877
2.072072143562558
1.5151690823249309
4.162967556639856
3.0936420431136407
0.32899804005693634
4.74226255827417
6.263972752963788
3.038859544977543
3.7576596061408702
2.860991987039012
5.750753332723854
2.0184212386109266
3.554906247085175
0.33510125258840495
2.8019406837204537
1.9286805516878074
5.935559964774377
2.752565428607103
0.8887059688401794
2.7241307270472315
3.96950452374441
4.955720991810592
5.2754796585326575
1.523339312147524
5.393198065995986
3.5927324064019253
3.454624268593292
1.5449419295883866
3.096832543961385
4.766921012957255
0.9687512552660831
0.5539475634394317
5.473277299737828
4.574619009790945
4.010617403024191
5.676702371831434
4.6760673940771875
4.136142629356406
1.434015905210928
0.5218743783967659
5.023899469139867
4.12710603916296
3.24029312391056
3.1730949276687666
2.6236806915570536
2.64068572392856
4.563143986461892
1.351404322363562
6.075099611965518
1.6246621417012228
5.353449874327742
5.704367630710423
3.173783919176049
3.8663181580896024
4.335448681711334
1.627994233895934
5.830107170586315
2.797205341512417
0.4728160892762067
2.877862982865189
1.6420787629230662
4.987395792369639
4.321390643063347
4.333656172745305
6.107831893566509
4.302061935834839
4.015663942828303
4.986321968494949
6.018850603951009
5.701143681978643
0.08200792742142439
1.092358278959012
5.7497184451748495
3.7052399947238195
5.934553342120185
6.0769204308528355
0.6885961476151907
3.029231695337374
1.7466695803791015
0.9269817531536668
3.4638966387320473
1.564415361160832
2.3836438690094344
2.8211680393071537
3.938825680536006
3.008029576883906
4.103017640324668
5.068709235456239
4.816453023541176
2.791886089440277
3.9094128943492077
2.3005640035843364
3.4498862230847127
4.841405907164759
2.4976670213682093
1.9507512084890803
3.2277606463093917
4.912930611722673
3.0181156649768197
3.7958985141179795
0.9316219187476709
0.758423338169018
2.4960690282249893
4.154212079227109
5.344103121612073
4.655039420986826
2.682008481021041
5.583423817848845
2.910996313129502
3.99185890133374
4.533996265286216
3.196442162154621
5.98100813030881
4.629410863836641
0.4944589768482968
2.583760597554432
0.8474909469588658
3.428689553743368
1.4938935454776565
1.3463442798873178
3.9858523199830604
4.6938354671063705
3.2807836966540904
0.00595078832266332
0.41842922099866103
3.312781513442328
1.9043208612119065
2.5924552965440726
0.33188927420810554
0.9378381977188336
5.802510968732732
6.0124649991176815
5.337107257220183
5.602989790502588
3.2345947683594463
6.1427367661980306
1.711132177670768
5.029336338167909
0.1685868294481891
3.47934532748859
1.238457559082792
1.5754423825498947
5.660232893529403
4.841069192497329
1.634187835886959
6.2668596842547135
2.5757956042470247
1.1781995717454712
0.3589246836926733
1.134049949048412
3.724746992411106
3.295738326337093
0.02214351111427557
0.6968731585802745
1.8878583533116968
5.840184771830418
3.3079568185144437
0.6390506852259586
1.41216718522642
3.088806301960673
3.1310996417617676
5.1625482964425995
3.260530312468439
6.165899086316882
1.8496107935286559
1.9393342827663438
2.1801982421749213
2.0421273105278046
3.1847064403603236
0.38735111148197204
4.849273598633715