/*--------------------------------*- C++ -*----------------------------------*\
| =========                 |                                                 |
| \\      /  F ield         | OpenFOAM: The Open Source CFD Toolbox           |
|  \\    /   O peration     | Version:  v2006                                 |
|   \\  /    A nd           | Website:  www.openfoam.com                      |
|    \\/     M anipulation  |                                                 |
\*---------------------------------------------------------------------------*/
FoamFile
{
    version     2.0;
    format      ascii;
    class       extendedFeatureEdgeMesh;
    location    "constant/extendedFeatureEdgeMesh";
    object      monaco.extendedFeatureEdgeMesh;
}
// * * * * * * * * * * * * * * * * * * * * * * * * * * * * * * * * * * * * * //

// points

102
(
(-32.5797996521 99.4467010498 18.2000007629)
(156.408996582 364.779998779 8)
(149.348007202 356.175994873 8)
(156.408996582 364.779998779 18.2000007629)
(149.348007202 356.175994873 18.2000007629)
(302.312988281 263.311004639 8)
(302.312988281 263.311004639 18.2000007629)
(295.476989746 253.43800354 8)
(295.476989746 253.43800354 18.2000007629)
(160.035995483 347.641998291 8)
(160.035995483 347.641998291 18.2000007629)
(158.623001099 348.562988281 8)
(158.623001099 348.562988281 18.2000007629)
(69.2946014404 239.727996826 8)
(65.8779983521 275.528991699 8)
(57.6551017761 236.343994141 8)
(39.6455993652 251.126998901 8)
(40.6946983337 263.20300293 8)
(56.8885993958 282.869995117 8)
(64.5784988403 276.595001221 8)
(139.024002075 364.649993896 8)
(64.5784988403 276.595001221 18.2000007629)
(56.8885993958 282.869995117 18.2000007629)
(65.8779983521 275.528991699 18.2000007629)
(139.024002075 364.649993896 18.2000007629)
(69.2946014404 239.727996826 18.2000007629)
(57.6551017761 236.343994141 18.2000007629)
(39.6455993652 251.126998901 18.2000007629)
(40.6946983337 263.20300293 18.2000007629)
(-44.4530982971 99.6082992554 8)
(-32.5797996521 99.4467010498 8)
(-44.4530982971 99.6082992554 -13.8000001907)
(-32.5797996521 99.4467010498 -13.8000001907)
(-45.5845985413 84.62840271 -13.8000001907)
(-45.5961990356 48.0047988892 -13.8000001907)
(-45.5845985413 84.62840271 18)
(-45.5961990356 48.0047988892 18)
(-45.3245010376 84.9464035034 -13.8000001907)
(-45.3245010376 84.9464035034 18)
(-45.3791007996 84.9904022217 -13.8000001907)
(-45.3791007996 84.9904022217 18)
(-45.4347991943 85.0133972168 -13.8000001907)
(-45.4347991943 85.0133972168 18)
(-44.3897018433 99.103302002 -13.8000001907)
(-44.3897018433 99.103302002 18)
(-44.4898986816 99.1102981567 -13.8000001907)
(-44.4898986816 99.1102981567 18)
(-44.4530982971 99.6082992554 18)
(-32.5932006836 57.4799003601 -13.8000001907)
(-32.5932006836 57.4799003601 18)
(-32.5797996521 99.4467010498 18)
(-40.3431015015 48.0029983521 -13.8000001907)
(-40.3431015015 48.0029983521 18)
(-44.4530982971 99.6082992554 18.2000007629)
(-28.2947006226 179.147994995 8)
(-44.4160995483 159.279998779 8)
(-28.2947006226 179.147994995 18.2000007629)
(-44.4160995483 159.279998779 18.2000007629)
(-16.6558990479 182.531997681 8)
(-16.6558990479 182.531997681 18.2000007629)
(1.35438001156 167.75 8)
(1.35438001156 167.75 18.2000007629)
(0.304650992155 155.675003052 8)
(0.304650992155 155.675003052 18.2000007629)
(-32.4882011414 115.722000122 8)
(-32.4882011414 115.722000122 18.2000007629)
(-32.59349823 115.596000671 8)
(-32.59349823 115.596000671 18.2000007629)
(-44.529499054 116.320999146 8)
(-44.529499054 116.320999146 18.2000007629)
(-41.7853012085 123.238998413 8)
(-41.7853012085 123.238998413 18.2000007629)
(-10.2714996338 161.70300293 8)
(-10.2714996338 161.70300293 18.2000007629)
(-24.9783992767 173.664993286 8)
(-24.9783992767 173.664993286 18.2000007629)
(-37.5852012634 158.223999023 8)
(-37.5852012634 158.223999023 18.2000007629)
(-34.4859008789 155.694000244 8)
(-34.4859008789 155.694000244 18.2000007629)
(-36.7270011902 153.005004883 8)
(-36.7270011902 153.005004883 18.2000007629)
(-39.9938011169 -1.0174100399 -13.8000001907)
(-40.0027008057 -28.4179992676 -13.8000001907)
(-39.9938011169 -1.0174100399 18)
(-40.0027008057 -28.4179992676 18)
(-24.5939006805 -1.02301001549 -13.8000001907)
(-24.5939006805 -1.02301001549 18)
(-24.5842990875 28.1765003204 -13.8000001907)
(-24.5842990875 28.1765003204 18)
(-43.1053009033 28.1634998322 -13.8000001907)
(-43.1053009033 28.1634998322 18)
(-43.0581016541 47.9595985413 -13.8000001907)
(-43.0581016541 47.9595985413 18)
(-39.978099823 47.9592018127 -13.8000001907)
(-39.978099823 47.9592018127 18)
(-32.3804016113 57.248298645 -13.8000001907)
(-32.3804016113 57.248298645 18)
(-0.983147025108 31.5699996948 -13.8000001907)
(-0.983147025108 31.5699996948 18)
(-1.00239002705 -28.4309005737 -13.8000001907)
(-1.00239002705 -28.4309005737 18)
)

// edges

288
(
(3 1)
(1 2)
(4 3)
(6 5)
(5 1)
(3 6)
(8 7)
(7 5)
(6 8)
(9 7)
(8 10)
(11 9)
(10 12)
(11 13)
(13 15)
(15 16)
(16 17)
(18 19)
(17 18)
(19 14)
(14 20)
(20 2)
(21 19)
(18 22)
(22 21)
(21 23)
(24 20)
(23 24)
(24 4)
(12 25)
(25 13)
(26 15)
(25 26)
(27 16)
(26 27)
(28 17)
(27 28)
(28 22)
(31 29)
(30 32)
(32 31)
(35 33)
(33 34)
(34 36)
(36 35)
(37 33)
(35 38)
(39 37)
(38 40)
(42 41)
(41 39)
(40 42)
(43 41)
(42 44)
(46 45)
(45 43)
(44 46)
(31 45)
(46 47)
(48 32)
(49 48)
(50 49)
(52 51)
(51 48)
(49 52)
(34 51)
(52 36)
(53 47)
(50 0)
(0 53)
(56 54)
(54 55)
(55 57)
(57 56)
(59 58)
(58 54)
(56 59)
(61 60)
(60 58)
(59 61)
(63 62)
(62 60)
(61 63)
(65 64)
(64 62)
(63 65)
(66 64)
(65 67)
(30 66)
(67 0)
(68 29)
(69 68)
(53 69)
(71 70)
(70 68)
(69 71)
(72 70)
(71 73)
(74 72)
(73 75)
(76 74)
(75 77)
(79 78)
(78 76)
(77 79)
(81 80)
(80 78)
(79 81)
(55 80)
(81 57)
(84 82)
(82 83)
(83 85)
(85 84)
(86 82)
(84 87)
(88 86)
(87 89)
(91 90)
(90 88)
(89 91)
(93 92)
(92 90)
(91 93)
(94 92)
(93 95)
(97 96)
(96 94)
(95 97)
(99 98)
(98 96)
(97 99)
(101 100)
(100 98)
(99 101)
(83 100)
(101 85)
(2 4)
(10 9)
(12 11)
(23 14)
(29 30)
(38 37)
(40 39)
(44 43)
(47 29)
(50 47)
(67 66)
(73 72)
(75 74)
(77 76)
(87 86)
(89 88)
(95 94)
(1 6)
(9 12)
(18 21)
(19 23)
(14 24)
(20 4)
(15 27)
(16 28)
(17 22)
(30 31)
(34 35)
(39 42)
(41 44)
(43 46)
(45 29)
(30 50)
(48 52)
(58 61)
(60 63)
(66 50)
(47 69)
(68 71)
(72 75)
(76 79)
(83 84)
(82 87)
(88 91)
(92 95)
(98 101)
(100 85)
(2 3)
(5 8)
(7 10)
(14 11)
(13 14)
(2 11)
(14 2)
(1 11)
(15 14)
(16 14)
(17 14)
(19 17)
(1 9)
(5 9)
(25 11)
(13 26)
(23 4)
(12 4)
(23 12)
(12 3)
(10 3)
(10 6)
(28 23)
(21 28)
(27 23)
(26 23)
(25 23)
(33 38)
(37 40)
(46 29)
(30 48)
(30 49)
(51 36)
(49 36)
(49 35)
(49 38)
(50 38)
(50 44)
(44 38)
(47 44)
(40 44)
(34 48)
(33 48)
(37 48)
(43 37)
(39 43)
(32 37)
(43 32)
(31 43)
(50 53)
(55 56)
(54 59)
(62 65)
(64 67)
(67 50)
(47 68)
(70 73)
(74 77)
(78 81)
(80 57)
(80 76)
(55 76)
(55 74)
(54 74)
(58 74)
(58 72)
(60 72)
(62 72)
(62 70)
(64 70)
(66 70)
(29 66)
(68 66)
(77 57)
(81 77)
(75 57)
(75 56)
(75 59)
(73 59)
(73 61)
(73 63)
(71 63)
(71 65)
(71 67)
(69 67)
(53 67)
(86 89)
(90 93)
(94 97)
(96 99)
(85 87)
(101 87)
(99 87)
(99 89)
(97 89)
(95 89)
(91 95)
(100 86)
(86 98)
(83 86)
(88 98)
(88 96)
(88 94)
(90 94)
)

// concaveStart mixedStart nonFeatureStart
1 1 102
// internalStart flatStart openStart multipleStart
137 154 288 288
// normals

192
(
(-0.773016363464 0.634386082616 0)
(0.570952869863 0.820982838064 0)
(0 0 -1)
(-0.773016363464 0.634386082616 0)
(-0 0 1)
(0.570952869863 0.820982838064 -0)
(0.822159300697 -0.569257485043 0)
(0 0 -1)
(0 0 1)
(0.822159300697 -0.569257485043 0)
(-0.570999837587 -0.820950172347 0)
(0 0 -1)
(0 0 1)
(-0.570999837587 -0.820950172347 0)
(-0.54604809436 -0.837753829383 0)
(-0.54604809436 -0.837753829383 0)
(0 0 -1)
(0 0 1)
(0 0 -1)
(0.772976213648 -0.634435003081 0)
(-0 0 -1)
(0.279174860074 -0.960240281129 0)
(0 0 -1)
(-0.634469913723 -0.772947558752 0)
(0 0 -1)
(-0.996247621791 0.0865486919304 0)
(0 -0 -1)
(0.632226832127 0.774783345677 -0)
(-0.771977337714 0.635650053139 0)
(0 0 -1)
(0.634228963554 0.773145278579 -0)
(0 0 -1)
(-0.772983709962 0.634425869692 0)
(0.634451754578 0.772962464233 -0)
(0.632226832127 0.774783345677 0)
(0.634228963554 0.773145278579 0)
(0 0 1)
(0 0 1)
(-0.772983709962 0.634425869692 0)
(0.634451754578 0.772962464233 0)
(0 0 1)
(0.772976213648 -0.634435003081 0)
(-0 0 1)
(0.279174860074 -0.960240281129 0)
(-0.634469913723 -0.772947558752 0)
(0 0 1)
(-0.996247621791 0.0865486919304 0)
(0 0 1)
(-0.771977337714 0.635650053139 0)
(0 0 1)
(0.0136089595154 0.999907393823 0)
(0.0136089595154 0.999907393823 0)
(-0.997280807803 0.073695253492 0)
(0.999999949016 -0.000319324575394 0)
(0 0 -1)
(-0.999999949835 0.000316749106931 0)
(-0.999999949835 0.000316749106931 0)
(-0.77405864844 0.633113898738 0)
(-0 0 -1)
(-0.000342757200279 -0.999999941259 0)
(0 0 1)
(-0.77405864844 0.633113898738 0)
(0 0 -1)
(-0 0 1)
(-0.62746424609 -0.778645374916 0)
(0 0 -1)
(-0.62746424609 -0.778645374916 0)
(0 0 1)
(-0.381606140428 -0.924325025945 0)
(-0.381606140428 -0.924325025945 0)
(-0.997260446007 0.0739702834295 0)
(0 0 -1)
(-0 0 1)
(-0.997260446007 0.0739702834295 0)
(-0.0696545166429 -0.997571174559 0)
(-0.0696545166429 -0.997571174559 0)
(-0.997280807803 0.073695253492 0)
(0 0 -1)
(0 0 1)
(-0.997280807803 0.073695253492 0)
(0 0 -1)
(0.999999949016 -0.000319324575394 0)
(0.774114530514 -0.633045569961 0)
(0.999999949016 -0.000319324575394 0)
(-0 0 1)
(0.99999964024 0.000848245637498 -0)
(0.774114530514 -0.633045569961 0)
(-0.000342757200279 -0.999999941259 0)
(0 0 -1)
(0 -0 1)
(-0.0136089595154 -0.999907393823 0)
(-0.999989551227 -0.00457137141479 0)
(-0.0136089595154 -0.999907393823 0)
(0.99999964024 0.000848245637498 -0)
(-0 0 1)
(-0.776522186289 0.630089909617 0)
(-0.279190299672 0.960235792172 0)
(-0 0 -1)
(-0.776522186289 0.630089909617 0)
(-0.632266369727 -0.77475108113 0)
(0 0 1)
(-0.279190299672 0.960235792172 0)
(0.634427742528 0.772982172829 0)
(0 0 -1)
(-0 0 1)
(0.634427742528 0.772982172829 -0)
(0.996242515569 -0.0866074487173 0)
(0 0 -1)
(0 0 1)
(0.996242515569 -0.0866074487173 0)
(0.772969939672 -0.634442647025 0)
(0 0 -1)
(0 0 1)
(0.772969939672 -0.634442647025 0)
(0.767329367914 -0.641253180216 0)
(0 0 -1)
(0 0 1)
(0.767329367914 -0.641253180216 0)
(0 0 -1)
(0 0 1)
(0.99999964024 0.000848245637498 0)
(0 0 -1)
(-0.999989551227 -0.00457137141479 0)
(-0 0 -1)
(-0.999989551227 -0.00457137141479 0)
(-0.929538609644 0.368724793281 0)
(0 0 1)
(-0.929538609644 0.368724793281 0)
(-0.77353082178 0.633758682588 0)
(0 0 -1)
(0 0 1)
(-0.77353082178 0.633758682588 0)
(0 -0 -1)
(0 0 1)
(-0.630993986901 -0.775787721284 0)
(-0.630993986901 -0.775787721284 0)
(0 0 -1)
(0 0 1)
(0.77461429098 -0.632433949286 0)
(0 0 -1)
(0.77461429098 -0.632433949286 0)
(-0 0 1)
(0.632370137495 0.774666385746 -0)
(0.632370137495 0.774666385746 0)
(0.768183225616 -0.640230061683 0)
(-0 0 -1)
(0 -0 1)
(0.768183225616 -0.640230061683 0)
(-0.632266369727 -0.77475108113 0)
(-0 -0 -1)
(0 0 1)
(-0.999999947253 0.000324799155862 0)
(-0.999999947253 0.000324799155862 0)
(0.000363637105241 0.999999933884 0)
(-0 0 -1)
(-0.000330800067715 -0.999999945286 0)
(0 0 1)
(0.000363637105241 0.999999933884 -0)
(-0.999999945936 0.000328827175114 0)
(0 0 -1)
(-0.999999945936 0.000328827175114 0)
(0 0 1)
(0.000701932066517 -0.999999753646 0)
(0.000701932066517 -0.999999753646 0)
(-0.99999715764 0.00238426347554 0)
(0 -0 -1)
(0 0 1)
(-0.99999715764 0.00238426347554 0)
(0.000128807881974 0.999999991704 0)
(-0 0 -1)
(0 0 1)
(0.000128807881974 0.999999991704 -0)
(-0.774058242328 0.633114395259 0)
(0.633084721118 0.774082512325 0)
(0 -0 -1)
(-0.774058242328 0.633114395259 0)
(0 0 1)
(0.633084721118 0.774082512325 -0)
(0.999999948572 -0.000320711870357 0)
(-0 0 -1)
(0 -0 1)
(0.999999948572 -0.000320711870357 0)
(-0.000330800067715 -0.999999945286 0)
(0 0 -1)
(-0 0 1)
(0 -0 -1)
(0 0 1)
(-0 0 -1)
(0 0 1)
(0 0 1)
(0 -0 1)
(0 0 -1)
)

// normal volume types

192
(
0
0
0
0
0
0
0
0
0
0
0
0
0
0
0
0
0
0
0
0
0
0
0
0
0
0
0
0
0
0
0
0
0
0
0
0
0
0
0
0
0
0
0
0
0
0
0
0
0
0
0
0
0
0
0
0
0
0
0
0
0
0
0
0
0
0
0
0
0
0
0
0
0
0
0
0
0
0
0
0
0
0
0
0
0
0
0
0
0
0
0
0
0
0
0
0
0
0
0
0
0
0
0
0
0
0
0
0
0
0
0
0
0
0
0
0
0
0
0
0
0
0
0
0
0
0
0
0
0
0
0
0
0
0
0
0
0
0
0
0
0
0
0
0
0
0
0
0
0
0
0
0
0
0
0
0
0
0
0
0
0
0
0
0
0
0
0
0
0
0
0
0
0
0
0
0
0
0
0
0
0
0
0
0
0
0
0
0
0
0
0
0
)

// normalDirections

288
(
2(1 -1)
2(1 -1)
2(1 -1)
2(1 -1)
2(1 -1)
2(1 -1)
2(1 -1)
2(1 -1)
2(1 -1)
2(1 -1)
2(1 -1)
2(1 -1)
2(1 -1)
2(1 -1)
2(1 -1)
2(1 -1)
2(1 -1)
2(1 -1)
2(1 -1)
2(1 -1)
2(1 -1)
2(1 -1)
2(1 -1)
2(1 -1)
2(1 -1)
2(1 -1)
2(1 -1)
2(1 -1)
2(1 -1)
2(1 -1)
2(1 -1)
2(1 -1)
2(1 -1)
2(1 -1)
2(1 -1)
2(1 -1)
2(1 -1)
2(1 -1)
2(1 -1)
2(1 -1)
2(1 -1)
2(1 -1)
2(1 -1)
2(1 -1)
2(1 -1)
2(1 -1)
2(1 -1)
2(1 -1)
2(1 -1)
2(1 -1)
2(1 -1)
2(1 -1)
2(1 -1)
2(1 -1)
2(1 -1)
2(1 -1)
2(1 -1)
2(1 -1)
2(1 -1)
2(1 -1)
2(1 -1)
2(1 -1)
2(1 -1)
2(1 -1)
2(1 -1)
2(1 -1)
2(1 -1)
2(1 -1)
2(1 -1)
2(1 -1)
2(1 -1)
2(1 -1)
2(1 -1)
2(1 -1)
2(1 -1)
2(1 -1)
2(1 -1)
2(1 -1)
2(1 -1)
2(1 -1)
2(1 -1)
2(1 -1)
2(1 -1)
2(1 -1)
2(1 -1)
2(1 -1)
2(1 -1)
2(1 -1)
2(1 -1)
2(1 -1)
2(1 -1)
2(1 -1)
2(1 -1)
2(1 -1)
2(1 -1)
2(1 -1)
2(1 -1)
2(1 -1)
2(1 -1)
2(1 -1)
2(1 -1)
2(1 -1)
2(1 -1)
2(1 -1)
2(1 -1)
2(1 -1)
2(1 -1)
2(1 -1)
2(1 -1)
2(1 -1)
2(1 -1)
2(1 -1)
2(1 -1)
2(1 -1)
2(1 -1)
2(1 -1)
2(1 -1)
2(1 -1)
2(1 -1)
2(1 -1)
2(1 -1)
2(1 -1)
2(1 -1)
2(1 -1)
2(1 -1)
2(1 -1)
2(1 -1)
2(1 -1)
2(1 -1)
2(1 -1)
2(1 -1)
2(1 -1)
2(1 -1)
2(1 -1)
2(1 -1)
2(1 -1)
2(1 -1)
2(1 -1)
2(1 -1)
2(1 -1)
2(1 -1)
2(1 -1)
2(1 -1)
2(1 -1)
2(1 -1)
2(1 -1)
2(1 -1)
2(1 -1)
2(1 -1)
2(1 -1)
2(1 -1)
2(1 -1)
2(1 -1)
2(1 -1)
2(1 -1)
2(1 -1)
2(1 -1)
2(1 -1)
2(1 -1)
2(1 -1)
2(1 -1)
2(1 -1)
2(1 -1)
2(1 -1)
2(1 -1)
2(1 -1)
2(1 -1)
2(1 -1)
2(1 -1)
2(1 -1)
2(1 -1)
2(1 -1)
2(1 -1)
2(1 -1)
2(1 -1)
2(1 -1)
2(1 -1)
2(1 -1)
2(1 -1)
2(1 -1)
2(1 -1)
2(1 -1)
2(1 -1)
2(1 -1)
2(1 -1)
2(1 -1)
2(1 -1)
2(1 -1)
2(1 -1)
2(1 -1)
2(1 -1)
2(1 -1)
2(1 -1)
2(1 -1)
2(1 -1)
2(1 -1)
2(1 -1)
2(1 -1)
2(1 -1)
2(1 -1)
2(1 -1)
2(1 -1)
2(1 -1)
2(1 -1)
2(1 -1)
2(1 -1)
2(1 -1)
2(1 -1)
2(1 -1)
2(1 -1)
2(1 -1)
2(1 -1)
2(1 -1)
2(1 -1)
2(1 -1)
2(1 -1)
2(1 -1)
2(1 -1)
2(1 -1)
2(1 -1)
2(1 -1)
2(1 -1)
2(1 -1)
2(1 -1)
2(1 -1)
2(1 -1)
2(1 -1)
2(1 -1)
2(1 -1)
2(1 -1)
2(1 -1)
2(1 -1)
2(1 -1)
2(1 -1)
2(1 -1)
2(1 -1)
2(1 -1)
2(1 -1)
2(1 -1)
2(1 -1)
2(1 -1)
2(1 -1)
2(1 -1)
2(1 -1)
2(1 -1)
2(1 -1)
2(1 -1)
2(1 -1)
2(1 -1)
2(1 -1)
2(1 -1)
2(1 -1)
2(1 -1)
2(1 -1)
2(1 -1)
2(1 -1)
2(1 -1)
2(1 -1)
2(1 -1)
2(1 -1)
2(1 -1)
2(1 -1)
2(1 -1)
2(1 -1)
2(1 -1)
2(1 -1)
2(1 -1)
2(1 -1)
2(1 -1)
2(1 -1)
2(1 -1)
2(1 -1)
2(1 -1)
2(1 -1)
2(1 -1)
2(1 -1)
2(1 -1)
2(1 -1)
2(1 -1)
2(1 -1)
2(1 -1)
2(1 -1)
2(1 -1)
2(1 -1)
2(1 -1)
2(1 -1)
2(1 -1)
2(1 -1)
)

// edgeNormals

288
(
2(0 1)
2(0 2)
2(3 4)
2(5 6)
2(5 7)
2(1 8)
2(9 10)
2(9 11)
2(6 12)
2(13 11)
2(10 12)
2(14 16)
2(15 17)
2(18 19)
2(20 21)
2(22 23)
2(24 25)
2(26 27)
2(26 28)
2(29 30)
2(31 32)
2(31 33)
2(27 35)
2(34 28)
2(34 36)
2(35 37)
2(32 39)
2(38 40)
2(39 40)
2(41 42)
2(19 43)
2(21 44)
2(43 45)
2(23 46)
2(44 47)
2(25 48)
2(46 49)
2(48 36)
2(50 52)
2(51 53)
2(51 54)
2(55 57)
2(55 58)
2(56 59)
2(56 60)
2(61 62)
2(57 63)
2(64 65)
2(66 67)
2(68 70)
2(68 71)
2(69 72)
2(73 71)
2(70 72)
2(74 76)
2(74 77)
2(75 78)
2(52 77)
2(79 78)
2(53 80)
2(81 82)
2(83 84)
2(86 87)
2(86 88)
2(82 89)
2(59 88)
2(87 89)
2(90 91)
2(92 93)
2(92 94)
2(95 96)
2(95 97)
2(98 99)
2(98 100)
2(101 102)
2(101 103)
2(96 104)
2(105 106)
2(105 107)
2(102 108)
2(109 110)
2(109 111)
2(106 112)
2(113 114)
2(113 115)
2(110 116)
2(117 118)
2(114 119)
2(85 121)
2(93 94)
2(122 123)
2(124 125)
2(91 126)
2(127 128)
2(127 129)
2(125 130)
2(131 132)
2(128 133)
2(134 136)
2(135 137)
2(138 139)
2(140 141)
2(142 144)
2(142 145)
2(143 146)
2(147 148)
2(147 145)
2(144 146)
2(99 149)
2(148 150)
2(151 153)
2(151 154)
2(152 155)
2(152 156)
2(157 154)
2(153 156)
2(158 159)
2(160 161)
2(162 164)
2(162 165)
2(163 166)
2(167 168)
2(167 169)
2(164 170)
2(171 169)
2(168 170)
2(172 173)
2(172 174)
2(175 176)
2(177 178)
2(177 179)
2(173 180)
2(181 182)
2(181 183)
2(178 184)
2(155 185)
2(182 186)
2(3 33)
2(13 15)
2(14 41)
2(30 38)
2(50 121)
2(61 66)
2(64 69)
2(73 75)
2(79 122)
2(190 90)
2(117 120)
2(131 135)
2(134 140)
2(138 143)
2(157 160)
2(158 163)
2(171 175)
2(5 1)
2(14 15)
2(27 34)
2(30 35)
2(32 38)
2(33 39)
2(23 44)
2(25 46)
2(28 48)
2(50 51)
2(55 56)
2(68 69)
2(73 70)
2(74 75)
2(52 76)
2(83 85)
2(86 82)
2(105 102)
2(109 106)
2(85 120)
2(124 91)
2(127 125)
2(134 135)
2(142 143)
2(151 152)
2(157 153)
2(162 163)
2(171 168)
2(181 178)
2(155 182)
2(0 3)
2(9 6)
2(13 10)
2(18 187)
2(18 20)
2(187 2)
2(187 31)
2(2 16)
2(20 22)
2(22 24)
2(24 29)
2(26 29)
2(16 7)
2(7 11)
2(41 19)
2(21 43)
2(40 188)
2(188 4)
2(188 42)
2(4 17)
2(17 8)
2(8 12)
2(37 49)
2(37 36)
2(49 47)
2(47 45)
2(45 42)
2(61 57)
2(64 66)
2(76 79)
2(53 81)
2(81 83)
2(59 87)
2(89 60)
2(60 63)
2(63 84)
2(84 189)
2(189 190)
2(189 67)
2(190 78)
2(72 67)
2(88 58)
2(58 62)
2(62 80)
2(65 191)
2(65 71)
2(191 80)
2(191 54)
2(77 54)
2(90 92)
2(95 98)
2(101 96)
2(113 110)
2(117 114)
2(120 93)
2(122 124)
2(131 128)
2(138 140)
2(147 144)
2(99 148)
2(145 149)
2(149 139)
2(139 97)
2(97 103)
2(103 136)
2(136 107)
2(107 111)
2(111 132)
2(132 115)
2(115 118)
2(118 129)
2(121 123)
2(123 129)
2(150 141)
2(150 146)
2(141 100)
2(100 104)
2(104 137)
2(137 108)
2(108 112)
2(112 133)
2(133 116)
2(116 119)
2(119 130)
2(130 126)
2(126 94)
2(158 160)
2(167 164)
2(172 175)
2(177 173)
2(156 186)
2(186 184)
2(184 161)
2(161 180)
2(180 176)
2(176 166)
2(170 166)
2(183 185)
2(183 159)
2(185 154)
2(159 179)
2(179 174)
2(174 165)
2(165 169)
)

// featurePointNormals

102
(
3(92 93 94)
3(0 1 2)
3(0 2 33)
3(0 1 4)
3(3 4 39)
3(5 6 7)
3(5 6 8)
3(9 10 11)
3(9 10 12)
3(13 11 14)
3(10 12 15)
3(14 16 19)
3(15 17 41)
3(18 19 21)
3(29 30 32)
3(20 21 23)
3(22 23 25)
3(24 25 28)
3(26 27 28)
3(26 27 30)
3(31 32 33)
3(27 35 36)
3(34 28 36)
3(35 37 38)
3(32 39 40)
3(41 42 43)
3(21 44 45)
3(23 46 47)
3(25 48 49)
4(50 52 122 123)
3(51 53 121)
3(50 52 54)
3(51 53 54)
3(55 57 58)
3(55 58 59)
3(55 57 60)
3(56 59 60)
3(61 62 64)
3(57 63 66)
3(64 65 68)
3(66 67 69)
3(68 70 71)
3(68 70 72)
3(73 71 74)
3(70 72 75)
3(74 76 77)
3(74 76 78)
4(79 78 90 91)
3(53 80 82)
3(81 82 84)
3(83 84 92)
3(86 87 88)
3(86 87 89)
3(90 91 94)
3(95 96 97)
3(95 97 99)
3(95 96 100)
3(98 99 100)
3(101 102 103)
3(101 102 104)
3(105 106 107)
3(105 106 108)
3(109 110 111)
3(109 110 112)
3(113 114 115)
3(113 114 116)
3(117 118 85)
3(114 119 93)
3(122 123 125)
3(124 125 126)
3(127 128 129)
3(127 128 130)
3(131 132 134)
3(128 133 135)
3(134 136 138)
3(135 137 140)
3(138 139 142)
3(140 141 143)
3(142 144 145)
3(142 144 146)
3(147 148 145)
3(147 148 146)
3(151 153 154)
3(151 154 155)
3(151 153 156)
3(152 155 156)
3(157 154 158)
3(153 156 160)
3(158 159 162)
3(160 161 163)
3(162 164 165)
3(162 164 166)
3(167 168 169)
3(167 168 170)
3(171 169 172)
3(168 170 175)
3(172 173 174)
3(172 173 176)
3(177 178 179)
3(177 178 180)
3(181 182 183)
3(181 182 184)
)

// featurePointEdges

102
(
3(68 89 69)
6(0 154 4 196 191 1)
6(184 137 21 190 189 1)
6(184 2 203 204 5 0)
6(137 159 28 200 201 2)
5(3 185 7 197 4)
5(154 5 205 8 3)
4(6 186 9 7)
4(185 8 10 6)
6(138 155 11 196 197 9)
6(186 10 205 204 12 138)
7(11 191 189 187 13 198 139)
7(155 12 203 201 202 29 139)
5(188 14 199 30 13)
10(187 190 20 158 140 19 194 193 192 188)
5(192 15 160 31 14)
5(193 16 161 33 15)
6(194 195 18 162 35 16)
4(17 156 23 18)
5(195 19 157 22 17)
4(20 26 159 21)
5(156 24 207 25 22)
4(23 162 37 24)
10(157 25 206 208 209 210 202 200 27 140)
4(158 27 28 26)
5(198 30 32 210 29)
5(199 32 209 34 31)
5(160 34 208 36 33)
6(161 36 206 207 37 35)
7(38 168 213 145 90 255 141)
7(163 39 214 215 169 88 141)
5(163 40 232 57 38)
5(39 59 230 231 40)
5(41 211 45 226 42)
5(164 43 65 225 42)
5(164 44 218 46 41)
5(43 216 66 217 44)
7(142 212 47 228 230 227 45)
7(211 46 219 220 222 48 142)
5(143 165 50 229 47)
5(212 48 224 51 143)
4(49 166 52 50)
4(165 51 53 49)
8(144 167 55 232 231 228 229 52)
8(166 53 224 222 221 223 56 144)
4(54 168 57 55)
5(167 56 58 213 54)
7(58 223 146 67 174 239 145)
8(214 60 170 63 225 226 227 59)
7(215 61 219 218 217 64 60)
9(61 220 221 146 233 68 238 173 169)
4(62 216 65 63)
4(170 64 66 62)
5(233 69 269 92 67)
5(70 235 75 247 71)
6(234 72 108 245 246 71)
5(234 73 260 76 70)
6(72 243 109 257 259 73)
6(74 171 78 249 248 75)
6(235 76 261 262 79 74)
5(77 172 81 250 78)
5(171 79 263 82 77)
6(80 236 84 252 251 81)
6(172 82 264 265 85 80)
5(83 237 86 253 84)
5(236 85 266 87 83)
7(147 173 88 255 256 254 86)
8(237 87 267 268 269 89 238 147)
6(239 91 175 94 256 90)
5(174 92 268 95 91)
7(93 240 96 252 253 254 94)
7(175 95 267 266 265 97 93)
7(148 176 98 249 250 251 96)
7(240 97 264 263 262 99 148)
7(149 241 100 246 247 248 98)
7(176 99 261 260 259 101 149)
6(150 177 103 244 245 100)
6(241 101 257 258 104 150)
4(102 242 106 103)
4(177 104 107 102)
5(105 243 108 244 106)
5(242 107 258 109 105)
4(110 179 114 111)
5(178 112 135 283 111)
4(178 113 115 110)
5(112 183 136 274 113)
7(151 270 116 282 281 283 114)
7(179 115 274 275 276 117 151)
7(152 180 119 286 285 284 116)
7(270 117 277 278 279 120 152)
5(118 271 122 287 119)
5(180 120 280 123 118)
4(121 181 124 122)
4(271 123 125 121)
6(153 272 127 286 287 124)
6(181 125 280 279 128 153)
5(126 273 130 285 127)
5(272 128 278 131 126)
6(129 182 133 282 284 130)
6(273 131 277 276 134 129)
5(132 183 135 281 133)
5(182 134 275 136 132)
)

// regionEdges
0()


// ************************************************************************* //
