/*--------------------------------*- C++ -*----------------------------------*\
| =========                 |                                                 |
| \\      /  F ield         | OpenFOAM: The Open Source CFD Toolbox           |
|  \\    /   O peration     | Version:  v2006                                 |
|   \\  /    A nd           | Website:  www.openfoam.com                      |
|    \\/     M anipulation  |                                                 |
\*---------------------------------------------------------------------------*/
FoamFile
{
    version     2.0;
    format      ascii;
    class       dictionary;
    location    "system";
    object      controlDict;
}
// * * * * * * * * * * * * * * * * * * * * * * * * * * * * * * * * * * * * * //

application     interFoam;

startFrom       latestTime;

startTime       0;

stopAt          endTime;

endTime         20;

deltaT          0.001;

writeControl    adjustable;

writeInterval   0.1;

purgeWrite      0;

writeFormat     ascii;

writePrecision  7;

writeCompression off;

timeFormat      general;

timePrecision   6;

runTimeModifiable yes;

adjustTimeStep  yes;

maxCo           0.5;

maxAlphaCo      0.5;

maxDeltaT       1.0;


// ************************************************************************* //

functions
{

    points
    {
	type            sets;
        libs            ("libsampling.so");
        enabled         true; // Mettre à false pour désactiver les sondes

        // Contrôle d'écriture : 
        //  - timeStep   : pas de temps
        //  - adjustable : temps (si pas de temps adaptatif)
        //  - runTime    : temps (si pas de temps constant)
        writeControl     timeStep;
	writeInterval	 2;
        fixedLocations false;
        interpolationScheme cellPoint;
        setFormat       raw;
	sets
	(
	    point1
	    {
		type cloud;
		axis distance;
		points
		(
		    (10 0 0.95)
		    (15 0 0.95)
		);
	    }
	);
	fields
	(
            p
	);
    }
}

