/*---------------------------------------------------------------------------*\
| =========                 |                                                 |
| \\      /  F ield         | OpenFOAM: The Open Source CFD Toolbox           |
|  \\    /   O peration     | Version:  v2006                                 |
|   \\  /    A nd           | Website:  www.openfoam.com                      |
|    \\/     M anipulation  |                                                 |
\*---------------------------------------------------------------------------*/
FoamFile
{
    version     2.0;
    format      ascii;
    class       dictionary;
    location    "constant";
    object      waveProperties;
}
// * * * * * * * * * * * * * * * * * * * * * * * * * * * * * * * * * * * * * //

inlet
{

    alpha            alpha.water;

    waveModel        irregularMultiDirectional;

    nPaddle          1;

    rampTime         2.0;

    activeAbsorption no;

    wavePeriods
    800
    (
(2.468260053622327)
(2.4636639912022034)
(2.4590850133100735)
(2.4545230248624996)
(2.449977931480315)
(2.4454496394821175)
(2.4409380558778326)
(2.436443088362347)
(2.4319646453092134)
(2.4275026357644265)
(2.423056969440264)
(2.4186275567091977)
(2.4142143085978676)
(2.4098171367811285)
(2.405435953576155)
(2.401070671936614)
(2.3967212054468985)
(2.3923874683164263)
(2.3880693753740014)
(2.3837668420622307)
(2.379479784432005)
(2.375208119137042)
(2.370951763428483)
(2.366710635149549)
(2.3624846527302554)
(2.3582737351821823)
(2.3540778020933013)
(2.3498967736228566)
(2.345730570496301)
(2.341579114000284)
(2.337442325977697)
(2.333320128822767)
(2.329212445476205)
(2.3251191994204006)
(2.3210403146746756)
(2.3169757157905804)
(2.3129253278472413)
(2.3088890764467567)
(2.3048668877096445)
(2.3008586882703326)
(2.2968644052726983)
(2.2928839663656535)
(2.2889172996987774)
(2.2849643339179933)
(2.2810249981612873)
(2.2770992220544786)
(2.2731869357070242)
(2.269288069707874)
(2.2654025551213652)
(2.26153032348316)
(2.257671306796222)
(2.2538254375268387)
(2.249992648600682)
(2.2461728733989057)
(2.2423660457542893)
(2.2385720999474144)
(2.234790970702886)
(2.2310225931855854)
(2.227266902996967)
(2.2235238361713896)
(2.2197933291724823)
(2.2160753188895534)
(2.2123697426340287)
(2.2086765381359283)
(2.204995643540381)
(2.201326997404167)
(2.197670538692304)
(2.1940262067746574)
(2.190393941422592)
(2.1867736828056548)
(2.183165371488286)
(2.1795689484265717)
(2.175984354965019)
(2.172411532833368)
(2.1688504241434376)
(2.1653009713859936)
(2.1617631174276575)
(2.1582368055078396)
(2.154721979235702)
(2.151218582587155)
(2.1477265599018778)
(2.1442458558803734)
(2.1407764155810485)
(2.1373181844173215)
(2.133871108154761)
(2.1304351329082523)
(2.1270102051391846)
(2.1235962716526755)
(2.1201932795948126)
(2.116801176449931)
(2.1134199100379054)
(2.11004942851148)
(2.1066896803536164)
(2.1033406143748676)
(2.1000021797107804)
(2.096674325819319)
(2.0933570024783137)
(2.090050159782937)
(2.0867537481431984)
(2.083467718281468)
(2.080192021230017)
(2.0769266083285913)
(2.0736714312219955)
(2.070426441857711)
(2.067191592483529)
(2.063966835645209)
(2.060752124184158)
(2.0575474112351313)
(2.0543526502239566)
(2.051167794865275)
(2.047992799160309)
(2.0448276173946454)
(2.0416722041360424)
(2.0385265142322555)
(2.0353905028088852)
(2.0322641252672398)
(2.029147337282225)
(2.026040094800246)
(2.022942354037134)
(2.0198540714760895)
(2.016775203865643)
(2.0137057082176373)
(2.0106455418052263)
(2.007594662160892)
(2.0045530270744814)
(2.001520594591258)
(1.9984973230099745)
(1.9954831708809597)
(1.9924780970042255)
(1.9894820604275891)
(1.9864950204448122)
(1.9835169365937582)
(1.9805477686545654)
(1.9775874766478352)
(1.9746360208328393)
(1.9716933617057397)
(1.9687594599978278)
(1.9658342766737762)
(1.962917772929908)
(1.960009910192482)
(1.9571106501159898)
(1.9542199545814731)
(1.9513377856948508)
(1.9484641057852636)
(1.9455988774034338)
(1.942742063320038)
(1.9398936265240936)
(1.9370535302213616)
(1.9342217378327629)
(1.931398212992806)
(1.928582919548032)
(1.92577582155547)
(1.922976883281109)
(1.9201860691983812)
(1.917403343986658)
(1.9146286725297603)
(1.9118620199144827)
(1.9091033514291265)
(1.9063526325620508)
(1.903609829000231)
(1.9008749066278334)
(1.8981478315248006)
(1.8954285699654487)
(1.8927170884170774)
(1.8900133535385906)
(1.8873173321791317)
(1.8846289913767276)
(1.8819482983569442)
(1.8792752205315573)
(1.8766097254972292)
(1.8739517810342017)
(1.8713013551049964)
(1.8686584158531274)
(1.866022931601826)
(1.8633948708527746)
(1.8607742022848517)
(1.8581608947528876)
(1.8555549172864314)
(1.8529562390885261)
(1.8503648295344972)
(1.8477806581707477)
(1.8452036947135664)
(1.8426339090479449)
(1.8400712712264042)
(1.837515751467832)
(1.8349673201563266)
(1.8324259478400566)
(1.829891605230124)
(1.8273642631994385)
(1.8248438927816033)
(1.822330465169808)
(1.81982395171573)
(1.817324323928448)
(1.8148315534733597)
(1.8123456121711143)
(1.8098664719965487)
(1.8073941050776345)
(1.8049284836944341)
(1.8024695802780644)
(1.8000173674096693)
(1.7975718178194005)
(1.7951329043854065)
(1.7927006001328305)
(1.790274878232815)
(1.7878557120015166)
(1.7854430748991268)
(1.7830369405289006)
(1.7806372826361956)
(1.7782440751075161)
(1.7758572919695654)
(1.7734769073883074)
(1.771102895668034)
(1.7687352312504387)
(1.7663738887137033)
(1.7640188427715842)
(1.761670068272512)
(1.7593275401986952)
(1.7569912336652322)
(1.7546611239192311)
(1.752337186338933)
(1.7500193964328474)
(1.7477077298388906)
(1.7454021623235314)
(1.7431026697809466)
(1.7408092282321783)
(1.7385218138243017)
(1.7362404028295988)
(1.7339649716447358)
(1.7316954967899514)
(1.729431954908248)
(1.72717432276459)
(1.72492257724511)
(1.7226766953563195)
(1.7204366542243255)
(1.7182024310940556)
(1.715974003328485)
(1.7137513484078746)
(1.7115344439290108)
(1.7093232676044525)
(1.7071177972617868)
(1.7049180108428839)
(1.7027238864031649)
(1.700535402110871)
(1.698352536246339)
(1.6961752672012833)
(1.6940035734780832)
(1.6918374336890738)
(1.6896768265558468)
(1.68752173090855)
(1.685372125685199)
(1.68322798993099)
(1.6810893027976177)
(1.6789560435426019)
(1.676828191528615)
(1.6747057262228169)
(1.672588627196196)
(1.6704768741229112)
(1.6683704467796436)
(1.6662693250449503)
(1.6641734888986224)
(1.6620829184210517)
(1.6599975937925973)
(1.6579174952929603)
(1.6558426033005622)
(1.6537728982919273)
(1.6517083608410714)
(1.6496489716188931)
(1.6475947113925704)
(1.6455455610249639)
(1.6435015014740193)
(1.6414625137921806)
(1.6394285791258028)
(1.6373996787145717)
(1.6353757938909266)
(1.6333569060794881)
(1.6313429967964894)
(1.6293340476492133)
(1.6273300403354303)
(1.6253309566428444)
(1.6233367784485415)
(1.62134748771844)
(1.61936306650675)
(1.6173834969554302)
(1.6154087612936554)
(1.6134388418372827)
(1.611473720988324)
(1.6095133812344233)
(1.6075578051483341)
(1.605606975387405)
(1.6036608746930665)
(1.601719485890321)
(1.5997827918872394)
(1.5978507756744582)
(1.5959234203246815)
(1.594000708992187)
(1.592082624912336)
(1.5901691514010843)
(1.5882602718545005)
(1.5863559697482839)
(1.584456228637289)
(1.5825610321550514)
(1.5806703640133182)
(1.5787842080015813)
(1.5769025479866132)
(1.5750253679120094)
(1.5731526517977286)
(1.5712843837396413)
(1.5694205479090793)
(1.567561128552388)
(1.5657061099904832)
(1.5638554766184103)
(1.562009212904906)
(1.5601673033919647)
(1.5583297326944074)
(1.5564964854994516)
(1.554667546566288)
(1.5528429007256568)
(1.5510225328794283)
(1.549206428000188)
(1.5473945711308206)
(1.5455869473841022)
(1.54378354194229)
(1.5419843400567186)
(1.540189327047399)
(1.5383984883026165)
(1.5366118092785375)
(1.5348292754988133)
(1.5330508725541903)
(1.531276586102121)
(1.5295064018663802)
(1.5277403056366792)
(1.5259782832682884)
(1.5242203206816578)
(1.5224664038620426)
(1.5207165188591314)
(1.5189706517866748)
(1.51722878882212)
(1.5154909162062447)
(1.513757020242794)
(1.5120270872981236)
(1.5103011038008392)
(1.5085790562414438)
(1.5068609311719843)
(1.5051467152057005)
(1.5034363950166805)
(1.5017299573395113)
(1.5000273889689395)
(1.498328676759528)
(1.4966338076253196)
(1.494942768539499)
(1.4932555465340613)
(1.4915721286994787)
(1.489892502184373)
(1.488216654195186)
(1.4865445719958568)
(1.4848762429074993)
(1.4832116543080796)
(1.4815507936321004)
(1.4798936483702825)
(1.478240206069252)
(1.4765904543312287)
(1.4749443808137142)
(1.473301973229187)
(1.4716632193447945)
(1.4700281069820496)
(1.4683966240165307)
(1.4667687583775793)
(1.465144498048005)
(1.4635238310637881)
(1.4619067455137862)
(1.4602932295394426)
(1.4586832713344966)
(1.4570768591446948)
(1.4554739812675062)
(1.4538746260518367)
(1.4522787818977474)
(1.4506864372561752)
(1.4490975806286521)
(1.4475122005670302)
(1.4459302856732057)
(1.4443518245988458)
(1.442776806045119)
(1.4412052187624222)
(1.4396370515501167)
(1.4380722932562593)
(1.436510932777338)
(1.4349529590580123)
(1.4333983610908485)
(1.431847127916063)
(1.4302992486212633)
(1.4287547123411934)
(1.4272135082574782)
(1.4256756255983727)
(1.4241410536385082)
(1.422609781698647)
(1.4210817991454303)
(1.4195570953911352)
(1.4180356598934294)
(1.4165174821551272)
(1.4150025517239493)
(1.4134908581922823)
(1.41198239119694)
(1.4104771404189282)
(1.4089750955832077)
(1.407476246458461)
(1.40598058285686)
(1.4044880946338356)
(1.402998771687848)
(1.4015126039601586)
(1.4000295814346042)
(1.3985496941373707)
(1.3970729321367714)
(1.3955992855430226)
(1.3941287445080253)
(1.3926612992251433)
(1.3911969399289874)
(1.3897356568951973)
(1.3882774404402267)
(1.3868222809211306)
(1.38537016873535)
(1.3839210943205036)
(1.3824750481541768)
(1.3810320207537121)
(1.379592002676003)
(1.378154984517288)
(1.376720956912946)
(1.3752899105372913)
(1.373861836103374)
(1.3724367243627764)
(1.3710145661054156)
(1.3695953521593442)
(1.368179073390553)
(1.3667657207027746)
(1.3653552850372896)
(1.3639477573727332)
(1.362543128724902)
(1.3611413901465625)
(1.3597425327272628)
(1.358346547593142)
(1.3569534259067442)
(1.3555631588668302)
(1.3541757377081942)
(1.3527911537014778)
(1.351409398152988)
(1.3500304624045139)
(1.3486543378331484)
(1.3472810158511064)
(1.3459104879055457)
(1.3445427454783918)
(1.3431777800861584)
(1.3418155832797756)
(1.340456146644412)
(1.3390994617993042)
(1.3377455203975823)
(1.3363943141261003)
(1.3350458347052658)
(1.3337000738888705)
(1.332357023463922)
(1.3310166752504768)
(1.3296790211014742)
(1.328344052902572)
(1.3270117625719813)
(1.3256821420603042)
(1.324355183350371)
(1.3230308784570801)
(1.3217092194272362)
(1.3203901983393929)
(1.3190738073036936)
(1.3177600384617139)
(1.3164488839863056)
(1.3151403360814409)
(1.3138343869820588)
(1.3125310289539107)
(1.3112302542934076)
(1.3099320553274685)
(1.30863642441337)
(1.3073433539385957)
(1.3060528363206882)
(1.3047648640070988)
(1.3034794294750423)
(1.3021965252313488)
(1.3009161438123202)
(1.299638277783583)
(1.2983629197399469)
(1.297090062305259)
(1.2958196981322643)
(1.294551819902462)
(1.2932864203259673)
(1.2920234921413698)
(1.2907630281155955)
(1.289505021043768)
(1.2882494637490718)
(1.2869963490826162)
(1.2857456699232992)
(1.2844974191776717)
(1.2832515897798051)
(1.2820081746911565)
(1.280767166900437)
(1.2795285594234802)
(1.2782923453031099)
(1.2770585176090106)
(1.2758270694375984)
(1.2745979939118919)
(1.2733712841813833)
(1.2721469334219135)
(1.2709249348355425)
(1.2697052816504257)
(1.268487967120688)
(1.2672729845262998)
(1.2660603271729534)
(1.2648499883919393)
(1.2636419615400247)
(1.2624362399993319)
(1.261232817177217)
(1.2600316865061503)
(1.2588328414435963)
(1.2576362754718953)
(1.256441982098145)
(1.2552499548540834)
(1.254060187295972)
(1.2528726730044792)
(1.251687405584565)
(1.2505043786653667)
(1.2493235859000846)
(1.248145020965868)
(1.2469686775637026)
(1.2457945494182987)
(1.2446226302779793)
(1.2434529139145682)
(1.2422853941232816)
(1.2411200647226175)
(1.2399569195542457)
(1.2387959524829)
(1.2376371573962712)
(1.2364805282048983)
(1.2353260588420636)
(1.2341737432636843)
(1.233023575448209)
(1.2318755493965123)
(1.23072965913179)
(1.2295858986994563)
(1.228444262167039)
(1.227304743624079)
(1.2261673371820265)
(1.2250320369741416)
(1.2238988371553907)
(1.2227677319023489)
(1.2216387154130983)
(1.2205117819071298)
(1.2193869256252443)
(1.2182641408294541)
(1.2171434218028865)
(1.2160247628496852)
(1.2149081582949148)
(1.2137936024844644)
(1.212681089784953)
(1.2115706145836338)
(1.2104621712882997)
(1.2093557543271898)
(1.2082513581488958)
(1.2071489772222697)
(1.2060486060363311)
(1.204950239100175)
(1.203853870942881)
(1.2027594961134216)
(1.201667109180574)
(1.2005767047328273)
(1.1994882773782956)
(1.1984018217446277)
(1.1973173324789192)
(1.1962348042476245)
(1.1951542317364694)
(1.1940756096503649)
(1.1929989327133186)
(1.1919241956683508)
(1.1908513932774083)
(1.1897805203212788)
(1.1887115715995074)
(1.1876445419303103)
(1.1865794261504938)
(1.1855162191153683)
(1.1844549156986681)
(1.1833955107924674)
(1.182337999307098)
(1.181282376171069)
(1.1802286363309848)
(1.1791767747514659)
(1.1781267864150662)
(1.177078666322196)
(1.1760324094910404)
(1.1749880109574817)
(1.1739454657750201)
(1.1729047690146965)
(1.1718659157650142)
(1.1708289011318616)
(1.1697937202384356)
(1.1687603682251644)
(1.1677288402496333)
(1.166699131486507)
(1.1656712371274556)
(1.164645152381079)
(1.1636208724728327)
(1.1625983926449548)
(1.161577708156391)
(1.1605588142827208)
(1.1595417063160867)
(1.15852637956512)
(1.157512829354869)
(1.1565010510267282)
(1.1554910399383658)
(1.1544827914636524)
(1.1534763009925917)
(1.1524715639312497)
(1.151468575701684)
(1.1504673317418763)
(1.14946782750566)
(1.148470058462655)
(1.147474020098196)
(1.1464797079132674)
(1.1454871174244332)
(1.1444962441637707)
(1.1435070836788033)
(1.1425196315324335)
(1.1415338833028774)
(1.140549834583598)
(1.1395674809832395)
(1.1385868181255616)
(1.1376078416493762)
(1.1366305472084808)
(1.135654930471595)
(1.1346809871222976)
(1.13370871285896)
(1.1327381033946864)
(1.1317691544572481)
(1.130801861789022)
(1.1298362211469288)
(1.1288722283023693)
(1.1279098790411644)
(1.1269491691634916)
(1.1259900944838268)
(1.1250326508308812)
(1.1240768340475413)
(1.1231226399908096)
(1.1221700645317432)
(1.1212191035553958)
(1.1202697529607584)
(1.1193220086606985)
(1.1183758665819035)
(1.117431322664821)
(1.116488372863602)
(1.1155470131460417)
(1.1146072394935238)
(1.113669047900961)
(1.11273243437674)
(1.111797394942664)
(1.1108639256338975)
(1.1099320224989082)
(1.109001681599413)
(1.1080728990103224)
(1.1071456708196836)
(1.106219993128628)
(1.1052958620513154)
(1.1043732737148786)
(1.1034522242593714)
(1.1025327098377127)
(1.1016147266156349)
(1.100698270771629)
(1.0997833384968927)
(1.0988699259952763)
(1.0979580294832316)
(1.0970476451897593)
(1.096138769356356)
(1.0952313982369641)
(1.0943255280979196)
(1.0934211552178998)
(1.092518275887874)
(1.0916168864110523)
(1.090716983102835)
(1.089818562290762)
(1.0889216203144632)
(1.088026153525609)
(1.0871321582878608)
(1.0862396309768219)
(1.0853485679799872)
(1.0844589656966963)
(1.0835708205380843)
(1.0826841289270328)
(1.0817988872981232)
(1.0809150920975883)
(1.0800327397832636)
(1.0791518268245421)
(1.078272349702326)
(1.0773943049089798)
(1.076517688948284)
(1.0756424983353883)
(1.074768729596766)
(1.0738963792701677)
(1.0730254439045752)
(1.0721559200601574)
(1.0712878043082228)
(1.0704210932311764)
(1.0695557834224738)
(1.0686918714865772)
(1.06782935403891)
(1.0669682277058143)
(1.0661084891245047)
(1.0652501349430263)
(1.0643931618202105)
(1.063537566425632)
(1.0626833454395646)
(1.0618304955529394)
(1.0609790134673016)
(1.0601288958947683)
(1.0592801395579856)
(1.0584327411900871)
(1.0575866975346515)
(1.056742005345661)
(1.0558986613874601)
(1.055056662434714)
(1.0542160052723675)
(1.0533766866956038)
(1.052538703509805)
(1.0517020525305094)
(1.0508667305833737)
(1.0500327345041307)
(1.0492000611385506)
(1.0483687073424006)
(1.047538669981406)
(1.0467099459312097)
(1.0458825320773346)
(1.0450564253151433)
(1.0442316225497992)
(1.0434081206962285)
(1.042585916679082)
(1.0417650074326958)
(1.0409453899010546)
(1.0401270610377515)
(1.039310017805953)
(1.0384942571783593)
(1.037679776137168)
(1.0368665716740373)
(1.036054640790047)
(1.0352439804956637)
(1.034434587810703)
(1.0336264597642937)
(1.0328195933948408)
(1.0320139857499895)
(1.0312096338865893)
(1.0304065348706581)
(1.0296046857773467)
(1.0288040836909031)
(1.0280047257046372)
(1.0272066089208853)
(1.0264097304509758)
(1.0256140874151942)
(1.0248196769427473)
(1.0240264961717302)
(1.0232345422490914)
(1.022443812330598)
(1.021654303580802)
(1.020866013173007)
(1.0200789382892343)
(1.0192930761201882)
(1.0185084238652236)
(1.0177249787323124)
(1.0169427379380112)
(1.0161616987074273)
(1.0153818582741858)
(1.0146032138803978)
(1.013825762776627)
(1.0130495022218582)
(1.0122744294834651)
(1.011500541837177)
(1.0107278365670478)
(1.0099563109654246)
(1.0091859623329151)
(1.008416787978357)
(1.007648785218786)
(1.0068819513794054)
(1.0061162837935536)
(1.0053517798026748)
(1.0045884367562874)
(1.0038262520119536)
(1.003065222935249)
(1.0023053468997314)
(1.0015466212869117)
(1.0007890434862234)
(1.000032610894993)
(0.9992773209184092)
(0.998523170969494)
(0.997770158469073)
(0.9970182808457464)
(0.9962675355358593)
(0.9955179199834723)
(0.9947694316403328)
(0.9940220679658464)
(0.9932758264270479)
(0.9925307044985726)
(0.9917866996626278)
(0.9910438094089646)
    );

    waveHeights
    800
    (
(0.002684060730058691)
(0.0027182122663997853)
(0.002752380823619609)
(0.002786561055868306)
(0.0028207476611009545)
(0.0028549353827216004)
(0.0028891190111631263)
(0.0029232933854034995)
(0.00295745339441896)
(0.002991593978574746)
(0.0030257101309540497)
(0.003059796898625873)
(0.0030938493838525327)
(0.003127862745237565)
(0.00316183219881486)
(0.0031957530190798457)
(0.0032296205399636084)
(0.0032634301557507776)
(0.0032971773219421666)
(0.0033308575560630563)
(0.003364466438418109)
(0.003397999612793824)
(0.003431452787109612)
(0.0034648217340184344)
(0.0034981022914580373)
(0.003531290363153824)
(0.0035643819190743606)
(0.0035973729958406193)
(0.0036302596970899654)
(0.0036630381937959693)
(0.0036957047245450582)
(0.003728255595771149)
(0.0037606871819492373)
(0.0037929959257490754)
(0.003825178338149926)
(0.0038572309985175314)
(0.003889150554644278)
(0.003920933722753659)
(0.003952577287470039)
(0.0039840781017547655)
(0.004015433086809683)
(0.004046639231949044)
(0.004077693594440817)
(0.004108593299318431)
(0.004139335539163919)
(0.0041699175738634485)
(0.0042003367303362175)
(0.00423059040223765)
(0.004260676049637859)
(0.004290591198676309)
(0.004320333441193582)
(0.00434990043434114)
(0.004379289900170018)
(0.004408499625199288)
(0.004437527459965162)
(0.004466371318551583)
(0.004495029178103146)
(0.004523499078321129)
(0.004551779120943523)
(0.004579867469209695)
(0.004607762347310606)
(0.0046354620398252645)
(0.004662964891144145)
(0.004690269304880319)
(0.004717373743268991)
(0.004744276726556144)
(0.004770976832376939)
(0.0047974726951245635)
(0.004823763005310132)
(0.00484984650891429)
(0.004875722006731141)
(0.004901388353705041)
(0.004926844458260902)
(0.0049520892816285215)
(0.004977121837161505)
(0.005001941189651328)
(0.005026546454636998)
(0.005050936797710903)
(0.005075111433821258)
(0.005099069626571676)
(0.005122810687518294)
(0.005146333975464887)
(0.0051696388957564515)
(0.005192724899571617)
(0.005215591483214325)
(0.005238238187405143)
(0.005260664596572612)
(0.005282870338144974)
(0.005304855081842628)
(0.0053266185389716685)
(0.005348160461718813)
(0.005369480642448055)
(0.00539057891299931)
(0.005411455143989378)
(0.005432109244115493)
(0.005452541159461696)
(0.005472750872808343)
(0.005492738402944934)
(0.005512503803986545)
(0.005532047164694068)
(0.005551368607798469)
(0.005570468289329267)
(0.005589346397947461)
(0.005608003154283032)
(0.005626438810277272)
(0.005644653648530025)
(0.00566264798165207)
(0.005680422151622754)
(0.0056979765291530395)
(0.005715311513054081)
(0.005732427529611475)
(0.005749325031965294)
(0.005766004499496026)
(0.005782466437216492)
(0.00579871137516988)
(0.005814739867833973)
(0.0058305524935316315)
(0.005846149853847644)
(0.005861532573051983)
(0.0058767012975295555)
(0.005891656695216517)
(0.0059063994550431435)
(0.005920930286383403)
(0.005935249918511176)
(0.005949359100063232)
(0.005963258598508966)
(0.005976949199626909)
(0.005990431706988074)
(0.006003706941446128)
(0.006016775740634403)
(0.0060296389584697995)
(0.006042297464663508)
(0.006054752144238637)
(0.0060670038970547045)
(0.006079053637338981)
(0.0060909022932247)
(0.00610255080629611)
(0.006114000131140362)
(0.006125251234906213)
(0.006136305096869511)
(0.006147162708005472)
(0.006157825070567681)
(0.006168293197673836)
(0.006178568112898156)
(0.006188650849870464)
(0.0061985424518818735)
(0.006208243971497066)
(0.006217756470173116)
(0.0062270810178848045)
(0.006236218692756419)
(0.0062451705806999365)
(0.006253937775059596)
(0.006262521376262789)
(0.006270922491477223)
(0.006279142234274306)
(0.006287181724298697)
(0.006295042086943974)
(0.006302724453034381)
(0.006310229958512558)
(0.006317559744133238)
(0.006324714955162839)
(0.006331696741084884)
(0.006338506255311205)
(0.006345144654898865)
(0.006351613100272733)
(0.006357912754953665)
(0.0063640447852922125)
(0.006370010360207817)
(0.006375810650933398)
(0.006381446830765305)
(0.0063869200748185575)
(0.006392231559787294)
(0.0063973824637103965)
(0.006402373965742203)
(0.006407207245928244)
(0.0064118834849859726)
(0.006416403864090365)
(0.006420769564664386)
(0.006424981768174219)
(0.006429041655929214)
(0.00643295040888647)
(0.006436709207460013)
(0.006440319231334496)
(0.006443781659283336)
(0.006447097668991265)
(0.0064502684368812)
(0.006453295137945365)
(0.006456178945580646)
(0.006458921031428055)
(0.006461522565216295)
(0.006463984714609322)
(0.006466308645057879)
(0.006468495519654905)
(0.006470546498994789)
(0.006472462741036384)
(0.00647424540096975)
(0.006475895631086515)
(0.00647741458065387)
(0.0064788033957920614)
(0.006480063219355379)
(0.006481195190816551)
(0.006482200446154498)
(0.006483080117745398)
(0.006483835334256988)
(0.006484467220546054)
(0.006484976897559071)
(0.006485365482235903)
(0.006485634087416537)
(0.006485783821750792)
(0.006485815789610944)
(0.0064857310910072085)
(0.006485530821506044)
(0.006485216072151232)
(0.006484787929387626)
(0.00648424747498761)
(0.006483595785980134)
(0.006482833934582319)
(0.006481962988133591)
(0.006480984009032251)
(0.006479898054674486)
(0.006478706177395741)
(0.006477409424414414)
(0.006476008837777824)
(0.006474505454310431)
(0.006472900305564221)
(0.006471194417771255)
(0.006469388811798296)
(0.006467484503103526)
(0.006465482501695248)
(0.006463383812092577)
(0.006461189433288067)
(0.0064589003587122214)
(0.006456517576199866)
(0.0064540420679583144)
(0.006451474810537354)
(0.006448816774800899)
(0.006446068925900413)
(0.006443232223249942)
(0.006440307620502804)
(0.00643729606552984)
(0.006434198500399246)
(0.006431015861357908)
(0.00642774907881422)
(0.006424399077322355)
(0.006420966775567967)
(0.0064174530863552485)
(0.006413858916595376)
(0.006410185167296232)
(0.006406432733553466)
(0.006402602504542768)
(0.006398695363513406)
(0.006394712187782938)
(0.006390653848733106)
(0.006386521211806866)
(0.006382315136506527)
(0.006378036476392995)
(0.006373686079086033)
(0.0063692647862656025)
(0.006364773433674167)
(0.006360212851119997)
(0.006355583862481423)
(0.00635088728571201)
(0.006346123932846644)
(0.0063412946100084985)
(0.006336400117416839)
(0.006331441249395691)
(0.006326418794383285)
(0.006321333534942316)
(0.006316186247770948)
(0.006310977703714574)
(0.006305708667778289)
(0.006300379899140082)
(0.006294992151164688)
(0.006289546171418112)
(0.006284042701682802)
(0.006278482477973422)
(0.006272866230553263)
(0.006267194683951198)
(0.006261468556979239)
(0.006255688562750624)
(0.006249855408698443)
(0.006243969796594774)
(0.006238032422570323)
(0.006232043977134539)
(0.006226005145196196)
(0.0062199166060844255)
(0.006213779033570191)
(0.006207593095888163)
(0.006201359455759013)
(0.0061950787704120975)
(0.006188751691608502)
(0.006182378865664471)
(0.006175960933475159)
(0.0061694985305387395)
(0.006162992286980818)
(0.006156442827579166)
(0.006149850771788736)
(0.006143216733766988)
(0.006136541322399451)
(0.006129825141325574)
(0.006123068788964817)
(0.0061162728585429735)
(0.00610943793811872)
(0.006102564610610401)
(0.006095653453822986)
(0.0060887050404752514)
(0.00608171993822713)
(0.0060746987097072425)
(0.0060676419125406)
(0.006060550099376438)
(0.006053423817916249)
(0.006046263610941883)
(0.0060390700163438435)
(0.006031843567149666)
(0.006024584791552423)
(0.0060172942129393244)
(0.006009972349920434)
(0.0060026197163574446)
(0.005995236821392575)
(0.005987824169477495)
(0.005980382260402367)
(0.005972911589324895)
(0.005965412646799479)
(0.0059578859188063734)
(0.005950331886780915)
(0.005942751027642763)
(0.005935143813825189)
(0.005927510713304369)
(0.0059198521896286944)
(0.005912168701948117)
(0.00590446070504345)
(0.005896728649355734)
(0.005888972981015525)
(0.0058811941418722355)
(0.005873392569523414)
(0.005865568697344032)
(0.005857722954515727)
(0.005849855766056024)
(0.005841967552847524)
(0.005834058731667055)
(0.005826129715214761)
(0.005818180912143179)
(0.005810212727086227)
(0.005802225560688159)
(0.005794219809632473)
(0.005786195866670709)
(0.005778154120651248)
(0.005770094956547979)
(0.005762018755488936)
(0.005753925894784836)
(0.005745816747957561)
(0.005737691684768522)
(0.005729551071246984)
(0.00572139526971826)
(0.005713224638831842)
(0.005705039533589438)
(0.005696840305372897)
(0.005688627301972053)
(0.005680400867612458)
(0.00567216134298302)
(0.005663909065263532)
(0.005655644368152096)
(0.005647367581892434)
(0.005639079033301096)
(0.005630779045794543)
(0.005622467939416143)
(0.005614146030862996)
(0.005605813633512718)
(0.005597471057450026)
(0.005589118609493263)
(0.005580756593220761)
(0.005572385308997111)
(0.005564005053999274)
(0.005555616122242601)
(0.005547218804606689)
(0.005538813388861139)
(0.005530400159691165)
(0.005521979398723076)
(0.00551355138454963)
(0.0055051163927552485)
(0.005496674695941094)
(0.005488226563750032)
(0.005479772262891424)
(0.005471312057165818)
(0.005462846207489475)
(0.005454374971918767)
(0.005445898605674452)
(0.005437417361165768)
(0.0054289314880144445)
(0.005420441233078513)
(0.005411946840476023)
(0.005403448551608594)
(0.005394946605184835)
(0.005386441237243608)
(0.005377932681177172)
(0.005369421167754157)
(0.005360906925142415)
(0.0053523901789317265)
(0.005343871152156345)
(0.005335350065317428)
(0.005326827136405289)
(0.005318302580921536)
(0.005309776611901054)
(0.005301249439933835)
(0.005292721273186681)
(0.005284192317424749)
(0.005275662776032957)
(0.005267132850037253)
(0.005258602738125724)
(0.0052500726366695805)
(0.005241542739743979)
(0.005233013239148715)
(0.0052244843244287666)
(0.0052159561828947)
(0.005207428999642917)
(0.005198902957575786)
(0.0051903782374216065)
(0.005181855017754436)
(0.0051733334750138004)
(0.005164813783524217)
(0.005156296115514627)
(0.00514778064113764)
(0.005139267528488677)
(0.005130756943624947)
(0.005122249050584304)
(0.005113744011403945)
(0.005105241986138987)
(0.0050967431328808885)
(0.005088247607775752)
(0.0050797555650424755)
(0.005071267156990777)
(0.005062782534039063)
(0.0050543018447321885)
(0.005045825235759062)
(0.005037352851970126)
(0.005028884836394693)
(0.005020421330258158)
(0.0050119624729990705)
(0.005003508402286079)
(0.0049950592540347425)
(0.004986615162424201)
(0.004978176259913737)
(0.0049697426772591785)
(0.004961314543529194)
(0.00495289198612145)
(0.0049444751307786425)
(0.004936064101604395)
(0.004927659021079036)
(0.004919260010075246)
(0.004910867187873579)
(0.004902480672177863)
(0.004894100579130469)
(0.004885727023327459)
(0.00487736011783361)
(0.004868999974197317)
(0.004860646702465376)
(0.00485230041119764)
(0.004843961207481553)
(0.0048356291969465755)
(0.004827304483778473)
(0.004818987170733512)
(0.004810677359152502)
(0.004802375148974759)
(0.004794080638751918)
(0.004785793925661656)
(0.00477751510552128)
(0.004769244272801223)
(0.004760981520638401)
(0.004752726940849471)
(0.004744480623943976)
(0.004736242659137376)
(0.004728013134363972)
(0.0047197921362897135)
(0.004711579750324898)
(0.004703376060636763)
(0.0046951811501619745)
(0.0046869951006189995)
(0.00467881799252038)
(0.00467064990518489)
(0.0046624909167496)
(0.004654341104181823)
(0.004646200543290982)
(0.004638069308740331)
(0.004629947474058625)
(0.004621835111651644)
(0.004613732292813641)
(0.004605639087738686)
(0.004597555565531903)
(0.004589481794220616)
(0.004581417840765388)
(0.004573363771070972)
(0.0045653196499971585)
(0.004557285541369531)
(0.004549261507990124)
(0.004541247611647981)
(0.00453324391312963)
(0.004525250472229452)
(0.004517267347759976)
(0.004509294597562057)
(0.00450133227851498)
(0.00449338044654647)
(0.0044854391566426085)
(0.004477508462857667)
(0.004469588418323838)
(0.004461679075260905)
(0.004453780484985784)
(0.004445892697922021)
(0.0044380157636091785)
(0.004430149730712138)
(0.004422294647030334)
(0.004414450559506875)
(0.004406617514237615)
(0.004398795556480114)
(0.004390984730662536)
(0.004383185080392455)
(0.004375396648465578)
(0.0043676194768743955)
(0.004359853606816753)
(0.004352099078704334)
(0.0043443559321710784)
(0.004336624206081504)
(0.004328903938538972)
(0.004321195166893858)
(0.0043134979277516675)
(0.004305812256981052)
(0.004298138189721769)
(0.004290475760392558)
(0.004282825002698951)
(0.0042751859496409994)
(0.004267558633520942)
(0.004259943085950792)
(0.004252339337859852)
(0.004244747419502164)
(0.004237167360463887)
(0.00422959918967061)
(0.004222042935394585)
(0.004214498625261904)