/*---------------------------------------------------------------------------*\
| =========                 |                                                 |
| \\      /  F ield         | OpenFOAM: The Open Source CFD Toolbox           |
|  \\    /   O peration     | Version:  v2006                                 |
|   \\  /    A nd           | Website:  www.openfoam.com                      |
|    \\/     M anipulation  |                                                 |
\*---------------------------------------------------------------------------*/
FoamFile
{
    version     2.0;
    format      ascii;
    class       dictionary;
    location    "constant";
    object      waveProperties;
}
// * * * * * * * * * * * * * * * * * * * * * * * * * * * * * * * * * * * * * //

inlet
{

    alpha            alpha.water;

    waveModel        irregularMultiDirectional;

    nPaddle          1;

    rampTime         2.0;

    activeAbsorption yes;

    wavePeriods
    500
    (
(2.468260053622327)
(2.4609090567047303)
(2.4536017153974696)
(2.446337641963337)
(2.4391164532432716)
(2.4319377705889904)
(2.424801219796801)
(2.4177064310425807)
(2.4106530388178915)
(2.4036406818672096)
(2.39666900312625)
(2.389737649661359)
(2.3828462726099535)
(2.3759945271219944)
(2.36918207230246)
(2.362408571154809)
(2.3556736905254114)
(2.348977101048927)
(2.3423184770946097)
(2.3356974967135278)
(2.329113841586673)
(2.322567196973944)
(2.3160572516639943)
(2.3095836979249107)
(2.3031462314557274)
(2.2967445513387403)
(2.2903783599926206)
(2.2840473631263007)
(2.277751269693628)
(2.2714897918487607)
(2.2652626449023034)
(2.259069547278159)
(2.252910220471085)
(2.246784389004945)
(2.240691780391641)
(2.2346321250907053)
(2.228605156469553)
(2.2226106107643746)
(2.2166482270416545)
(2.2107177471603117)
(2.204818915734444)
(2.198951480096668)
(2.193115190262042)
(2.187309798892564)
(2.1815350612622293)
(2.175790735222641)
(2.170076581169166)
(2.1643923620076153)
(2.158737843121455)
(2.153112792339524)
(2.1475169799042564)
(2.1419501784404016)
(2.1364121629242248)
(2.1309027106531855)
(2.125421601216087)
(2.1199686164636815)
(2.114543540479728)
(2.1091461595524934)
(2.1037762621466913)
(2.0984336388758416)
(2.0931180824750593)
(2.0878293877742493)
(2.082567351671708)
(2.077331773108124)
(2.0721224530409703)
(2.0669391944192794)
(2.061781802158797)
(2.0566500831175074)
(2.0515438460715196)
(2.046462901691319)
(2.0414070625183625)
(2.036376142942029)
(2.0313699591769)
(2.0263883292403824)
(2.021431072930656)
(2.0164980118049454)
(2.0115889691581055)
(2.0067037700015273)
(2.00184224104234)
(1.9970042106629247)
(1.9921895089007136)
(1.9873979674282922)
(1.9826294195337792)
(1.977883700101493)
(1.973160645592893)
(1.9684600940277932)
(1.9637818849658457)
(1.9591258594882859)
(1.954491860179936)
(1.9498797311114666)
(1.9452893178219053)
(1.9407204673013938)
(1.936173027974186)
(1.9316468496818868)
(1.927141783666923)
(1.9226576825562465)
(1.9181944003452638)
(1.91375179238199)
(1.9093297153514195)
(1.9049280272601168)
(1.9005465874210172)
(1.8961852564384383)
(1.8918438961932962)
(1.8875223698285242)
(1.8832205417346934)
(1.8789382775358265)
(1.8746754440754052)
(1.8704319094025696)
(1.8662075427585032)
(1.8620022145630009)
(1.8578157964012205)
(1.8536481610106113)
(1.8494991822680176)
(1.845368735176957)
(1.841256695855067)
(1.8371629415217179)
(1.833087350485796)
(1.829029802133642)
(1.824990176917154)
(1.8209683563420465)
(1.8169642229562637)
(1.812977660338546)
(1.8090085530871467)
(1.805056786808696)
(1.8011222481072118)
(1.7972048245732526)
(1.7933044047732118)
(1.7894208782387522)
(1.7855541354563769)
(1.781704067857134)
(1.777870567806457)
(1.774053528594132)
(1.7702528444243981)
(1.766468410406172)
(1.7627001225433987)
(1.758947877725525)
(1.7552115737180953)
(1.751491109153466)
(1.7477863835216387)
(1.7440972971612076)
(1.7404237512504248)
(1.736765647798374)
(1.7331228896362585)
(1.7294953804087982)
(1.725883024565732)
(1.7222857273534296)
(1.7187033948066055)
(1.7151359337401388)
(1.7115832517409917)
(1.7080452571602303)
(1.7045218591051434)
(1.7010129674314594)
(1.6975184927356568)
(1.6940383463473734)
(1.690572440321904)
(1.6871206874327942)
(1.683683001164522)
(1.6802592957052687)
(1.6768494859397798)
(1.6734534874423113)
(1.670071216469662)
(1.6667025899542889)
(1.6633475254975074)
(1.660005941362773)
(1.6566777564690425)
(1.6533628903842177)
(1.6500612633186642)
(1.6467727961188114)
(1.6434974102608244)
(1.6402350278443563)
(1.6369855715863701)
(1.6337489648150385)
(1.6305251314637113)
(1.627313996064957)
(1.624115483744674)
(1.6209295202162715)
(1.6177560317749171)
(1.6145949452918547)
(1.6114461882087852)
(1.608309688532317)
(1.6051853748284772)
(1.6020731762172897)
(1.5989730223674141)
(1.5958848434908488)
(1.592808570337693)
(1.5897441341909717)
(1.5866914668615173)
(1.5836505006829134)
(1.5806211685064937)
(1.577603403696401)
(1.5745971401246999)
(1.5716023121665468)
(1.5686188546954145)
(1.565646703078373)
(1.5626857931714189)
(1.5597360613148639)
(1.5567974443287707)
(1.5538698795084427)
(1.5509533046199646)
(1.5480476578957902)
(1.5451528780303851)
(1.5422689041759128)
(1.5393956759379714)
(1.5365331333713796)
(1.5336812169760046)
(1.5308398676926431)
(1.5280090268989415)
(1.5251886364053664)
(1.5223786384512157)
(1.5195789757006768)
(1.5167895912389266)
(1.5140104285682736)
(1.511241431604345)
(1.5084825446723131)
(1.5057337125031642)
(1.5029948802300075)
(1.5002659933844242)
(1.4975469978928582)
(1.4948378400730422)
(1.4921384666304671)
(1.489448824654886)
(1.486768861616856)
(1.4840985253643215)
(1.4814377641192285)
(1.4787865264741789)
(1.4761447613891203)
(1.4735124181880697)
(1.470889446555874)
(1.4682757965350026)
(1.4656714185223783)
(1.4630762632662366)
(1.460490281863023)
(1.4579134257543203)
(1.4553456467238077)
(1.4527868968942579)
(1.4502371287245552)
(1.4476962950067571)
(1.4451643488631765)
(1.442641243743501)
(1.4401269334219398)
(1.4376213719943993)
(1.435124513875691)
(1.4326363137967668)
(1.4301567268019824)
(1.42768570824639)
(1.425223213793059)
(1.4227691994104246)
(1.4203236213696624)
(1.4178864362420922)
(1.415457600896606)
(1.4130370724971248)
(1.4106248085000797)
(1.4082207666519186)
(1.405824904986641)
(1.4034371818233544)
(1.401057555763858)
(1.3986859856902507)
(1.3963224307625601)
(1.393966850416402)
(1.3916192043606566)
(1.3892794525751735)
(1.3869475553084962)
(1.3846234730756108)
(1.3823071666557192)
(1.37999859709003)
(1.3776977256795762)
(1.375404513983053)
(1.3731189238146757)
(1.3708409172420608)
(1.3685704565841266)
(1.3663075044090187)
(1.364052023532048)
(1.3618039770136576)
(1.359563328157406)
(1.3573300405079674)
(1.355104077849159)
(1.352885404201979)
(1.350673983822671)
(1.348469781200803)
(1.3462727610573684)
(1.3440828883429012)
(1.341900128235614)
(1.3397244461395523)
(1.3375558076827654)
(1.3353941787154977)
(1.3332395253083962)
(1.3310918137507326)
(1.32895101054865)
(1.326817082423417)
(1.3246899963097059)
(1.3225697193538848)
(1.3204562189123246)
(1.318349462549726)
(1.3162494180374578)
(1.3141560533519152)
(1.3120693366728913)
(1.3099892363819645)
(1.3079157210609034)
(1.3058487594900814)
(1.3037883206469139)
(1.301734373704303)
(1.2996868880291021)
(1.2976458331805922)
(1.2956111789089726)
(1.2935828951538688)
(1.2915609520428493)
(1.2895453198899605)
(1.2875359691942738)
(1.2855328706384466)
(1.2835359950872958)
(1.2815453135863846)
(1.2795607973606258)
(1.2775824178128914)
(1.275610146522642)
(1.273643955244565)
(1.271683815907225)
(1.2697297006117307)
(1.2677815816304074)
(1.2658394314054895)
(1.2639032225478175)
(1.2619729278355536)
(1.2600485202129037)
(1.2581299727888537)
(1.2562172588359188)
(1.2543103517888992)
(1.252409225243653)
(1.2505138529558761)
(1.2486242088398944)
(1.2467402669674685)
(1.2448620015666059)
(1.2429893870203874)
(1.2411223978658013)
(1.23926100879259)
(1.2374051946421065)
(1.2355549304061795)
(1.233710191225992)
(1.2318709523909661)
(1.2300371893376612)
(1.22820887764868)
(1.2263859930515832)
(1.224568511417819)
(1.2227564087616545)
(1.2209496612391224)
(1.2191482451469762)
(1.2173521369216507)
(1.2155613131382386)
(1.2137757505094677)
(1.2119954258846952)
(1.210220316248905)
(1.2084503987217166)
(1.206685650556402)
(1.2049260491389115)
(1.2031715719869078)
(1.201422196748807)
(1.1996779012028318)
(1.1979386632560687)
(1.1962044609435356)
(1.1944752724272587)
(1.1927510759953532)
(1.1910318500611168)
(1.1893175731621273)
(1.1876082239593508)
(1.1859037812362556)
(1.1842042238979333)
(1.1825095309702314)
(1.1808196815988872)
(1.1791346550486748)
(1.1774544307025558)
(1.1757789880608382)
(1.1741083067403448)
(1.172442366473583)
(1.1707811471079288)
(1.169124628604812)
(1.167472791038911)
(1.165825614597355)
(1.1641830795789285)
(1.162545166393291)
(1.1609118555601936)
(1.1592831277087088)
(1.1576589635764647)
(1.1560393440088845)
(1.1544242499584354)
(1.1528136624838796)
(1.151207562749536)
(1.149605932024544)
(1.1480087516821371)
(1.1464160031989197)
(1.144827668154151)
(1.1432437282290353)
(1.1416641652060178)
(1.1400889609680858)
(1.138518097498076)
(1.136951556877988)
(1.1353893212883028)
(1.133831373007307)
(1.1322776944104225)
(1.1307282679695432)
(1.129183076252373)
(1.127642101921776)
(1.1261053277351243)
(1.1245727365436575)
(1.1230443112918433)
(1.1215200350167456)
(1.119999890847397)
(1.1184838620041753)
(1.1169719317981877)
(1.115464083630657)
(1.1139603009923154)
(1.1124605674628008)
(1.1109648667100596)
(1.1094731824897546)
(1.1079854986446753)
(1.106501799104156)
(1.1050220678834966)
(1.1035462890833885)
(1.102074446889345)
(1.1006065255711366)
(1.0991425094822307)
(1.0976823830592357)
(1.0962261308213488)
(1.0947737373698105)
(1.0933251873873593)
(1.0918804656376966)
(1.0904395569649485)
(1.0890024462931398)
(1.0875691186256653)
(1.0861395590447693)
(1.0847137527110284)
(1.0832916848628367)
(1.0818733408158985)
(1.0804587059627204)
(1.0790477657721118)
(1.0776405057886866)
(1.0762369116323685)
(1.0748369689979038)
(1.0734406636543723)
(1.0720479814447075)
(1.0706589082852171)
(1.0692734301651081)
(1.0678915331460164)
(1.0665132033615385)
(1.0651384270167688)
(1.063767190387838)
(1.0623994798214582)
(1.0610352817344681)
(1.059674582613384)
(1.0583173690139538)
(1.0569636275607137)
(1.0556133449465497)
(1.0542665079322602)
(1.0529231033461244)
(1.0515831180834734)
(1.0502465391062614)
(1.048913353442647)
(1.0475835481865692)
(1.0462571104973344)
(1.044934027599201)
(1.0436142867809701)
(1.0422978753955785)
(1.040984780859694)
(1.039674990653315)
(1.0383684923193728)
(1.0370652734633359)
(1.0357653217528193)
(1.034468624917194)
(1.0331751707472014)
(1.0318849470945715)
(1.03059794187164)
(1.0293141430509736)
(1.0280335386649921)
(1.0267561168056007)
(1.0254818656238167)
(1.024210773329406)
(1.0229428281905175)
(1.021678018533324)
(1.0204163327416633)
(1.0191577592566812)
(1.0179022865764804)
(1.0166499032557692)
(1.0154005979055138)
(1.014154359192594)
(1.0129111758394576)
(1.0116710366237844)
(1.010433930378145)
(1.0091998459896678)
(1.0079687723997048)
(1.0067406986035021)
(1.005515613649872)
(1.0042935066408665)
(1.003074366731456)
(1.0018581831292062)
(1.0006449450939616)
(0.9994346419375287)
(0.9982272630233613)
(0.99702279776625)
(0.9958212356320125)
(0.9946225661371864)
(0.9934267788487245)
(0.9922338633836915)
(0.9910438094089646)
    );

    waveHeights
    500
    (
(0.003396375978114038)
(0.003465582605517084)
(0.0035348340277564453)
(0.003604102681141913)
(0.0036733613825824588)
(0.003742583350202967)
(0.003811742222614056)
(0.0038808120768560753)
(0.0039497674450407584)
(0.00401858332971588)
(0.004087235217980238)
(0.004155699094378056)
(0.004223951452603125)
(0.004291969306044399)
(0.004359730197205976)
(0.004427212206035077)
(0.004494393957192506)
(0.004561254626300855)
(0.004627773945205883)
(0.004693932206287015)
(0.004759710265853199)
(0.004825089546660228)
(0.004890052039585765)
(0.004954580304498276)
(0.005018657470355605)
(0.005082267234568921)
(0.005145393861667251)
(0.005208022181297353)
(0.005270137585593207)
(0.0053317260259490035)
(0.005392774009228498)
(0.005453268593443401)
(0.005513197382932456)
(0.005572548523072161)
(0.0056313106945495425)
(0.005689473107226239)
(0.005747025493622623)
(0.005803958102049776)
(0.0058602616894161685)
(0.005915927513735166)
(0.005970947326358626)
(0.006025313363960844)
(0.006079018340296303)
(0.006132055437753933)
(0.006184418298729476)
(0.006236101016836831)
(0.006287098127978467)
(0.006337404601293945)
(0.0063870158300048845)
(0.006435927622173936)
(0.0064841361913943645)
(0.006531638147426086)
(0.006578430486793417)
(0.006624510583358699)
(0.006669876178885465)
(0.00671452537360408)
(0.006758456616791875)
(0.006801668697379345)
(0.006844160734593194)
(0.006885932168646325)
(0.006926982751484369)
(0.006967312537597604)
(0.007006921874906593)
(0.0070458113957293485)
(0.00708398200783715)
(0.00712143488560573)
(0.0071581714612680165)
(0.007194193416274056)
(0.007229502672763361)
(0.0072641013851544615)
(0.007297991931855923)
(0.007331176907102804)
(0.00736365911292206)
(0.007395441551230013)
(0.007426527416064694)
(0.0074569200859555046)
(0.0074866231164322965)
(0.007515640232675664)
(0.0075439753223100195)
(0.007571632428340605)
(0.007598615742235489)
(0.0076249295971531844)
(0.007650578461316479)
(0.007675566931532602)
(0.007699899726859943)
(0.007723581682421021)
(0.007746617743361498)
(0.007769012958954651)
(0.007790772476850691)
(0.007811901537470097)
(0.007832405468539996)
(0.007852289679772508)
(0.007871559657683892)
(0.00789022096055309)
(0.0079082792135183)
(0.007925740103810065)
(0.007942609376119245)
(0.007958892828098158)
(0.007974596305993231)
(0.007989725700407216)
(0.008004286942189156)
(0.008018285998450156)
(0.008031728868702962)
(0.008044621581123318)
(0.008056970188931067)
(0.008068780766888863)
(0.008080059407916416)
(0.008090812219818106)
(0.008101045322121775)
(0.008110764843026632)
(0.008119976916457956)
(0.0081286876792265)
(0.008136903268290363)
(0.008144629818117186)
(0.008151873458144398)
(0.008158640310335445)
(0.008164936486829727)
(0.008170768087684134)
(0.00817614119870404)
(0.008181061889361574)
(0.008185536210799085)
(0.008189570193915724)
(0.008193169847535006)
(0.008196341156651325)
(0.008199090080753431)
(0.008201422552222766)
(0.00820334447480477)
(0.00820486172215114)
(0.008205980136431142)
(0.008206705527010048)
(0.008207043669192863)
(0.00820700030303146)
(0.00820658113219334)
(0.0082057918228902)
(0.008204638002864625)
(0.008203125260433085)
(0.00820125914358363)
(0.008199045159126592)
(0.008196488771896698)
(0.008193595404004914)
(0.008190370434138606)
(0.008186819196908338)
(0.008182946982239914)
(0.008178759034810147)
(0.00817426055352495)
(0.008169456691038326)
(0.008164352553310895)
(0.008158953199206634)
(0.008153263640126482)
(0.008147288839677585)
(0.0081410337133769)
(0.00813450312838794)
(0.008127701903289505)
(0.008120634807875183)
(0.008113306562982588)
(0.008105721840351101)
(0.008097885262507175)
(0.008089801402676096)
(0.008081474784719163)
(0.008072909883095359)
(0.008064111122846497)
(0.008055082879604927)
(0.008045829479622903)
(0.008036355199822705)
(0.008026664267866664)
(0.008016760862246246)
(0.008006649112389413)
(0.007996333098785415)
(0.007985816853126304)
(0.007975104358464399)
(0.00796419954938497)
(0.007953106312193474)
(0.007941828485116629)
(0.007930369858516693)
(0.007918734175118283)
(0.007906925130247159)
(0.00789494637208032)
(0.007882801501906874)
(0.007870494074399105)
(0.007858027597893181)
(0.00784540553467899)
(0.007832631301298609)
(0.007819708268852879)
(0.007806639763315629)
(0.007793429065855101)
(0.007780079413162095)
(0.007766593997784451)
(0.007752975968467403)
(0.007739228430499456)
(0.007725354446063344)
(0.007711357034591752)
(0.007697239173127388)
(0.0076830037966871025)
(0.007668653798629692)
(0.007654192031027082)
(0.007639621305038559)
(0.007624944391287783)
(0.00761016402024225)
(0.007595282882594964)
(0.00758030362964805)
(0.007565228873698011)
(0.007550061188422448)
(0.007534803109267935)
(0.0075194571338388925)
(0.0075040257222871685)
(0.007488511297702198)
(0.007472916246501457)
(0.0074572429188210845)
(0.007441493628906454)
(0.007425670655502536)
(0.007409776242243852)
(0.007393812598043897)
(0.0073777818974838675)
(0.00736168628120051)
(0.007345527856272997)
(0.007329308696608684)
(0.007313030843327582)
(0.00729669630514548)
(0.0072803070587555765)
(0.007263865049208479)
(0.007247372190290521)
(0.007230830364900257)
(0.007214241425423066)
(0.0071976071941037304)
(0.00718092946341699)
(0.007164209996435878)
(0.007147450527197857)
(0.007130652761068653)
(0.007113818375103677)
(0.007096949018407057)
(0.0070800463124881365)
(0.0070631118516154365)
(0.007046147203168004)
(0.007029153907984113)
(0.007012133480707267)
(0.006995087410129438)
(0.006978017159531558)
(0.006960924167021165)
(0.006943809845867212)
(0.006926675584831993)
(0.006909522748500147)
(0.006892352677604751)
(0.006875166689350439)
(0.006857966077733543)
(0.006840752113859244)
(0.006823526046255711)
(0.006806289101185207)
(0.006789042482952169)
(0.00677178737420823)
(0.006754524936254189)
(0.006737256309338917)
(0.0067199826129552016)
(0.006702704946132513)
(0.00668542438772671)
(0.006668141996706671)
(0.006650858812437843)
(0.006633575854962743)
(0.006616294125278386)
(0.006599014605610659)
(0.006581738259685644)
(0.006564466032997896)
(0.006547198853075694)
(0.006529937629743256)
(0.006512683255379958)
(0.0064954366051765255)
(0.006478198537388273)
(0.006460969893585326)
(0.006443751498899924)
(0.00642654416227074)
(0.006409348676684288)
(0.006392165819413434)
(0.0063749963522529585)
(0.0063578410217523034)
(0.0063407005594454105)
(0.006323575682077733)
(0.00630646709183044)
(0.006289375476541784)
(0.006272301509925723)
(0.006255245851787746)
(0.006238209148237983)
(0.006221192031901587)
(0.006204195122126396)
(0.0061872190251879705)
(0.006170264334491907)
(0.006153331630773585)
(0.006136421482295268)
(0.006119534445040611)
(0.006102671062906652)
(0.0060858318678932025)
(0.006069017380289769)
(0.00605222810885996)
(0.006035464551023425)
(0.0060187271930353635)
(0.0060020165101635865)
(0.005985332966863206)
(0.005968677016948942)
(0.0059520491037650695)
(0.005935449660353066)
(0.005918879109616925)
(0.005902337864486233)
(0.005885826328076946)
(0.00586934489384999)
(0.005852893945767611)
(0.005836473858447573)
(0.005820084997315197)
(0.005803727718753246)
(0.0057874023702497385)
(0.005771109290543639)
(0.005754848809768518)
(0.00573862124959416)
(0.00572242692336615)
(0.005706266136243506)
(0.005690139185334284)
(0.005674046359829303)
(0.005657987941133915)
(0.005641964202997868)
(0.0056259754116433315)
(0.005610021825891033)
(0.005594103697284589)
(0.005578221270213015)
(0.005562374782031459)
(0.005546564463180169)
(0.005530790537301716)
(0.0055150532213565145)
(0.005499352725736613)
(0.005483689254377851)
(0.005468063004870326)
(0.005452474168567235)
(0.0054369229306921365)
(0.0054214094704445525)
(0.005405933961104075)
(0.005390496570132867)
(0.005375097459276661)
(0.005359736784664233)
(0.005344414696905394)
(0.005329131341187505)
(0.005313886857370547)
(0.005298681380080754)
(0.0052835150388028254)
(0.005268387957970759)
(0.005253300257057311)
(0.005238252050662063)
(0.005223243448598202)
(0.0052082745559779466)
(0.005193345473296667)
(0.005178456296515754)
(0.005163607117144177)
(0.005148798022318826)
(0.005134029094883603)
(0.0051193004134673075)
(0.005104612052560317)
(0.005089964082590078)
(0.005075356569995463)
(0.005060789577299928)
(0.005046263163183582)
(0.0050317773825541215)
(0.005017332286616645)
(0.005002927922942421)
(0.0049885643355365465)
(0.004974241564904575)
(0.004959959648118089)
(0.004945718618879252)
(0.0049315185075843575)
(0.004917359341386355)
(0.004903241144256432)
(0.004889163937044588)
(0.0048751277375392804)
(0.004861132560526122)
(0.004847178417845638)
(0.004833265318450143)
(0.004819393268459664)
(0.004805562271217035)
(0.00479177232734207)
(0.004778023434784898)
(0.004764315588878443)
(0.00475064878239006)
(0.004737023005572364)
(0.004723438246213214)
(0.0047098944896849385)
(0.0046963917189927346)
(0.004682929914822303)
(0.004669509055586735)
(0.004656129117472603)
(0.004642790074485354)
(0.0046294918984939315)
(0.004616234559274706)
(0.004603018024554675)
(0.004589842260053959)
(0.004576707229527637)
(0.004563612894806866)
(0.00455055921583935)
(0.004537546150729152)
(0.004524573655775839)
(0.004511641685513015)
(0.004498750192746185)
(0.004485899128590041)
(0.004473088442505104)
(0.00446031808233377)
(0.004447587994335783)
(0.004434898123223094)
(0.004422248412194163)
(0.0044096388029676884)
(0.004397069235815785)
(0.004384539649596599)
(0.00437204998178639)
(0.004359600168511086)
(0.004347190144577294)
(0.004334819843502815)
(0.004322489197546639)
(0.004310198137738432)
(0.004297946593907552)
(0.0042857344947115445)
(0.004273561767664192)
(0.0042614283391630755)
(0.0042493341345166726)
(0.004237279077971)
(0.004225263092735805)
(0.0042132861010103235)
(0.00420134802400858)
(0.004189448781984284)
(0.00417758829425528)
(0.004165766479227595)
(0.004153983254419081)
(0.0041422385364826295)
(0.004130532241229015)
(0.004118864283649335)
(0.004107234577937066)
(0.004095643037509736)
(0.004084089575030232)
(0.004072574102427739)
(0.004061096530918307)
(0.004049656771025074)
(0.004038254732598134)
(0.0040268903248340485)
(0.004015563456295049)
(0.004004274034927863)
(0.003993021968082249)
(0.003981807162529181)
(0.003970629524478723)
(0.003959488959597606)
(0.0039483853730264565)
(0.003937318669396763)
(0.003926288752847516)
(0.003915295527041565)
(0.0039043388951816825)
(0.0038934187600263323)
(0.0038825350239051854)
(0.003871687588734322)
(0.0038608763560311903)
(0.0038501012269292834)
(0.0038393621021925524)
(0.0038286588822295754)
(0.0038179914671074397)
(0.0038073597565654103)
(0.003796763650028323)
(0.0037862030466197447)
(0.0037756778451748974)
(0.0037651879442533315)
(0.003754733242151396)
(0.0037443136369144413)
(0.0037339290263488333)
(0.0037235793080337256)
(0.0037132643793326143)
(0.0037029841374047008)
(0.0036927384792160038)
(0.003682527301550309)
(0.0036723505010198792)
(0.0036622079740759837)
(0.0036520996170192246)
(0.0036420253260096617)
(0.003631984997076766)
(0.0036219785261291573)
(0.0036120058089641814)
(0.003602066741277292)
(0.003592161218671252)
(0.003582289136665176)
(0.0035724503907033703)
(0.0035626448761640296)
(0.0035528724883677515)
(0.0035431331225858884)
(0.0035334266740487384)
(0.003523753037953571)
(0.0035141121094725116)
(0.0035045037837602455)
(0.0034949279559615925)
(0.003485384521218924)
(0.0034758733746794238)
(0.0034663944115022253)
(0.003456947526865378)
(0.0034475326159727026)
(0.003438149574060488)
(0.0034287982964040565)
(0.0034194786783242077)
(0.003410190615193511)
(0.00340093400244249)
(0.0033917087355656624)
(0.0033825147101274665)
(0.003373351821768061)
(0.0033642199662089972)
(0.0033551190392587947)
    );

    wavePhases
    500
    (
(2.6825762787079412)
(2.606338831898494)
(2.759224682347565)
(0.5047328100746024)
(3.0772500176123283)
(3.7114185506434665)
(5.432030869699244)
(1.9607072052611563)
(2.973129284145233)
(4.387915367805543)
(5.769625293855092)
(2.6630593720847826)
(6.068675939421062)
(1.9404475590896202)
(0.6159045881145628)
(4.773547660143469)
(0.14266463239855778)
(0.3968201662513287)
(0.5838434277680619)
(4.487540228396582)
(5.294535658273293)
(3.5797878860388352)
(5.273343160280207)
(5.576337556325307)
(4.016122125430386)
(1.0269916487716764)
(1.3886626275438092)
(2.1967298496358607)
(5.222935409370107)
(5.224991990254659)
(4.57157598379565)
(2.2867691386123203)
(2.016863273998112)
(1.2334851062793792)
(3.8063766998648147)
(4.229283936536697)
(6.148344871534366)
(0.606472843549824)
(0.6824284863312132)
(1.766990524115683)
(5.5170189317918705)
(0.5332750582229477)
(0.29270016667320303)
(2.8660552689046366)
(2.2039480804358167)
(6.092257822665336)
(1.6211196810787014)
(5.917557412627771)
(2.339706057954127)
(2.1191486135306965)
(2.6055585632327074)
(4.781945642910151)
(1.0586690095210507)
(1.594882839201169)
(4.180049805108792)
(4.3923742913121195)
(0.2522024924198205)
(4.254133723270294)
(4.696792229820415)
(4.0342966774739555)
(2.865577377621336)
(0.8295513846798356)
(5.426264443691836)
(2.6314917883842877)
(1.9609483499062277)
(5.079682859928922)
(0.5929624930348585)
(2.164366044391958)
(2.241135725740408)
(4.187436469709391)
(4.0934232675707)
(5.0584741946033756)
(2.4399423420833766)
(4.731465379966674)
(4.471370349130788)
(4.242262104834054)
(1.9471382582884316)
(1.4483862507924041)
(4.975619816929104)
(3.980547436274232)
(0.33431573870840914)
(3.2598379819495826)
(5.560904625514474)
(3.387154553526238)
(0.2018192844533571)
(4.935515399418427)
(1.371806164763363)
(5.378849992982247)
(0.743637861218867)
(1.387232589754503)
(1.0153552114245838)
(5.397897068291038)
(3.656702759403552)
(4.322573044977363)
(3.494468571516321)
(3.196987632062399)
(1.3315582380144189)
(1.0329357856015229)
(1.2684375860409052)
(5.422011907584606)
(3.099140863798839)
(5.7334721300585345)
(4.138695788513913)
(2.594555691135124)
(2.5193887942337527)
(6.0526646502467685)
(0.14108224554311513)
(1.2662861493117845)
(5.362093851272617)
(0.845402228390161)
(1.2676506339973839)
(5.608382474216539)
(1.3765572032765683)
(5.265057456129732)
(0.9363329324378642)
(0.30665597418265234)
(4.709542563054358)
(5.493884974923245)
(2.0087068985658374)
(0.146546280871666)
(0.4654093090870289)
(1.0443678009443367)
(4.255172819295105)
(1.4927899234657767)
(2.402544975241912)
(0.6564868452857113)
(4.759531784149849)
(3.745451623618001)
(3.5055566052123384)
(3.6228872573276836)
(4.132503518924336)
(2.095290520319989)
(2.367154493034484)
(1.9127291888032192)
(3.253291581254467)
(0.6818235686969427)
(3.4284456342360827)
(2.4878381252485937)
(1.3497171284386449)
(4.348049885681951)
(5.6164276921351854)
(4.536431052477569)
(2.083803267864622)
(1.389010842667836)
(5.483201693918525)
(0.0726808821052151)
(5.3621257536233085)
(2.1711837336224065)
(2.9500476942633944)
(3.5660492172677465)
(0.21854482251397767)
(5.248930391969285)
(6.22157412820401)
(2.2314004834883465)
(1.9258128685695655)
(0.4658119240221733)
(1.8010702030577288)
(5.012178497878087)
(0.511695748190673)
(3.8968765714482463)
(4.974054305404238)
(2.625836915825515)
(6.078451523476648)
(5.922866112635017)
(1.8340883536409651)
(4.148956164047773)
(5.258653655551613)
(0.9335775185511149)
(5.0036062978546845)
(0.01316194373451865)
(1.4366640265659465)
(2.776722050520694)
(2.824255351193282)
(6.159494534443707)
(1.1794587369624967)
(5.101026106106617)
(3.346910464508528)
(2.7409322220230097)
(0.34443761495141406)
(3.4734644370183023)
(5.5482022784824165)
(4.7673630048376685)
(2.3437808681945436)
(0.3804146325573885)
(1.2418863279096928)
(1.6827734888960153)
(4.283828317299572)
(0.5465376806793689)
(1.002280139663756)
(4.296315396615069)
(0.05900926824191033)
(0.31945389188744644)
(1.8275942558688876)
(2.31583339248895)
(0.7680144837335494)
(5.163793830682194)
(3.044705998524178)
(1.1336491382770342)
(1.2417656652057991)
(1.2207650481048251)
(3.8187973436021565)
(5.069123731530927)
(4.958397311134609)
(1.6019393824923067)
(5.943611633851097)
(0.9632433774068974)
(5.707720199522179)
(4.306473350808224)
(4.862376088866145)
(1.6270933648521957)
(2.8967685562473937)
(0.19618581138645702)
(1.0650015451672503)
(2.9465019837950877)
(5.813653162122274)
(3.0232550546342476)
(5.615856734710626)
(0.3861041169492894)
(2.4546097554409907)
(0.7689761111994772)
(1.759615029524934)
(5.551887432364126)
(3.279369157899619)
(5.801987082418489)
(2.2042294588313434)
(3.2463060128001304)
(5.214315186998102)
(2.4615015071535744)
(3.3539101531320266)
(1.5021557279641393)
(6.081170826948928)
(5.286232935046481)
(2.1035189568422954)
(5.389464438941091)
(6.20996323431147)
(1.5973752638313135)
(2.1268124639818056)
(2.99012402299654)
(1.3572739820795654)
(0.15882693213310548)
(1.6257478525601798)
(5.047335129806662)
(4.458636857936989)
(1.487756302538705)
(5.615058209024977)
(3.5497473275493157)
(3.0415901967079253)
(1.7434884829912822)
(5.680205884916214)
(5.807864238570952)
(1.6804678347289956)
(3.4491832958820714)
(5.8392151798048095)
(4.731243016688574)
(4.615202356383497)
(4.710946087877375)
(0.44361606747686216)
(5.0267633984948885)
(1.4107730100999267)
(4.844472995066511)
(0.5172082148605094)
(5.1386377256040685)
(4.550159720577399)
(2.8895371725078434)
(3.1619940863583746)
(1.1102550982622577)
(1.244768493584121)
(5.023075157081761)
(3.8493521924886713)
(4.550782414054465)
(3.752714492561696)
(2.0619142346313626)
(1.6963719075931654)
(0.6932222482708635)
(1.5483776181242144)
(5.384663855294698)
(2.7564748599362017)
(5.91596381822414)
(1.638952332539299)
(4.318735392261511)
(0.8517392897385831)
(3.563215802756266)
(4.826553005436813)
(5.242564335996697)
(2.90099515216883)
(2.7150048281488135)
(4.670832072591383)
(4.9360533943223)
(0.6230770985630075)
(0.6969392887849063)
(3.148546927457723)
(0.08125694979006892)
(2.041603303249103)
(2.8575625333133448)
(3.011921231611408)
(4.6699308989019706)
(4.30422905991243)
(3.914211710382079)
(1.958688035368328)
(4.843656770396212)
(1.5070552444518202)
(5.014227066246053)
(0.018415203361617928)
(0.7408578822547905)
(4.427372290381989)
(3.5020701759217028)
(4.569862256991472)
(5.008104632481285)
(4.1292682775317715)
(5.8070174270067785)
(4.706566201659195)
(4.203986663636795)
(3.700492739723967)
(5.835540234261822)
(0.11219153143804869)
(1.9262024160325903)
(3.940333713495108)
(5.375750693544969)
(2.0578261493715932)
(5.32809705331978)
(6.2411543259856845)
(5.958445029320231)
(2.998579412873998)
(3.64114686169081)
(3.9427835626592893)
(2.5213161752944884)
(3.0846151316572525)
(4.0920221685209075)
(1.0718935089376862)
(5.454285581311487)
(2.029515943481689)
(3.8255631680898934)
(1.0789004273411056)
(3.4985416000157232)
(2.24084124633125)
(4.9958690676562085)
(0.90695184806816)
(1.0069135088750163)
(1.352359604887985)
(5.001950154054974)
(0.19877655296294955)
(6.128847567845499)