/*--------------------------------*- C++ -*----------------------------------*\
| =========                 |                                                 |
| \\      /  F ield         | OpenFOAM: The Open Source CFD Toolbox           |
|  \\    /   O peration     | Version:  v2006                                 |
|   \\  /    A nd           | Website:  www.openfoam.com                      |
|    \\/     M anipulation  |                                                 |
\*---------------------------------------------------------------------------*/
FoamFile
{
    version     2.0;
    format      ascii;
    class       extendedFeatureEdgeMesh;
    location    "constant/extendedFeatureEdgeMesh";
    object      actuel2_sans-bac_directionZ.extendedFeatureEdgeMesh;
}
// * * * * * * * * * * * * * * * * * * * * * * * * * * * * * * * * * * * * * //

// points

106
(
(3.9943 -0 0.182)
(16.539 -0 0.182)
(19.1748 -0 0.6324)
(21.4531 -0 0)
(20.0232 -0 0.847)
(17.9443 -0 0.632399)
(19.9227 -0 0.847)
(20.8307 -0 1.0059)
(21.0385 -0 1.1201)
(21.383 -0 1.148)
(21.4531 -0 1.1576)
(20.4821 -0 1.0059)
(21.3831 -0 1.1576)
(0.295 -0 0)
(16.539 -0.1 0.181999)
(19.1748 -0.1 0.632399)
(21.4531 -0.1 0)
(20.0232 -0.1 0.847)
(17.9443 -0.1 0.6324)
(19.9227 -0.1 0.847)
(20.8307 -0.1 1.0059)
(21.0385 -0.1 1.1201)
(21.383 -0.1 1.148)
(21.4531 -0.1 1.1576)
(20.4821 -0.1 1.0059)
(21.3831 -0.1 1.1576)
(0.295 -0.1 -0)
(3.994299 -0.1 0.181999)
(4.445901 -0 0)
(3.029058 -0 -1e-06)
(3.170531 -0 0.141472)
(4.263901 -0 0.182001)
(6.31886 -0.1 -0)
(4.902016 -0.1 -1e-06)
(5.084015 -0.1 0.181998)
(6.136861 -0.1 0.181999)
(2.88451 -0.1 0.1274)
(1.40479 -0.1 0.0546)
(2.88451 -0 0.1274)
(1.40479 -0 0.0546)
(6.642429 -0 0)
(15.10567 -0 0)
(6.642429 -0.1 0)
(15.10567 -0.1 0)
(21.4531 -0.1 0.34728)
(21.4531 -0.1 0.81032)
(21.4531 -0 0.34728)
(21.4531 -0 0.81032)
(12.77559 -0.1 0.182)
(7.75771 -0.1 0.182)
(12.77559 -0 0.182)
(7.75771 -0 0.182)
(16.96059 -0 0.31712)
(17.52271 -0 0.49728)
(16.96059 -0.1 0.31712)
(17.52271 -0.1 0.49728)
(18.31345 -0 0.6324)
(18.80565 -0 0.6324)
(18.31345 -0.1 0.6324)
(18.80565 -0.1 0.6324)
(19.39917 -0 0.69678)
(19.69833 -0 0.78262)
(19.39917 -0.1 0.69678)
(19.69833 -0.1 0.78262)
(19.95285 -0 0.847)
(19.99305 -0 0.847)
(19.95285 -0.1 0.847)
(19.99305 -0.1 0.847)
(20.16087 -0 0.89467)
(20.34443 -0 0.95823)
(20.16087 -0.1 0.89467)
(20.34443 -0.1 0.95823)
(20.58668 -0 1.0059)
(20.72612 -0 1.0059)
(20.58668 -0.1 1.0059)
(20.72612 -0.1 1.0059)
(20.97616 -0 1.08584)
(20.89304 -0 1.04016)
(20.97616 -0.1 1.08584)
(20.89304 -0.1 1.04016)
(21.14185 -0.1 1.12847)
(21.27965 -0.1 1.13963)
(21.14185 -0 1.12847)
(21.27965 -0 1.13963)
(21.38303 -0.1 1.15088)
(21.38307 -0.1 1.15472)
(21.38303 -0 1.15088)
(21.38307 -0 1.15472)
(21.4041 -0.1 1.1576)
(21.4321 -0.1 1.1576)
(21.4041 -0 1.1576)
(21.4321 -0 1.1576)
(3.9943 -0.07 0.182)
(3.9943 -0.03 0.182)
(16.539 -0.07 0.182)
(16.539 -0.03 0.182)
(21.383 -0.07 1.148)
(21.383 -0.03 1.148)
(21.4531 -0.03 0)
(21.4531 -0.07 0)
(21.4531 -0.07 1.1576)
(21.4531 -0.03 1.1576)
(20.8307 -0.03 1.0059)
(20.8307 -0.07 1.0059)
(21.3831 -0.07 1.1576)
(21.3831 -0.03 1.1576)
)

// edges

141
(
(27 92)
(92 93)
(93 0)
(94 14)
(95 94)
(1 95)
(96 22)
(97 96)
(9 97)
(98 3)
(99 98)
(16 99)
(23 100)
(100 101)
(101 10)
(102 7)
(103 102)
(20 103)
(104 25)
(105 104)
(12 105)
(28 29)
(30 0)
(0 31)
(3 28)
(1 5)
(5 2)
(6 4)
(2 6)
(31 1)
(7 8)
(8 9)
(10 3)
(11 7)
(9 12)
(12 10)
(4 11)
(29 13)
(13 30)
(32 33)
(34 35)
(16 32)
(14 18)
(18 15)
(19 17)
(15 19)
(35 14)
(20 21)
(21 22)
(23 16)
(24 20)
(22 25)
(25 23)
(17 24)
(26 27)
(33 26)
(27 34)
(36 27)
(37 36)
(26 37)
(0 38)
(38 39)
(39 13)
(40 13)
(41 40)
(3 41)
(26 42)
(42 43)
(43 16)
(16 44)
(44 45)
(46 3)
(47 46)
(45 23)
(10 47)
(14 48)
(48 49)
(50 1)
(51 50)
(49 27)
(0 51)
(52 1)
(53 52)
(5 53)
(14 54)
(54 55)
(55 18)
(56 5)
(57 56)
(2 57)
(18 58)
(58 59)
(59 15)
(60 2)
(61 60)
(6 61)
(15 62)
(62 63)
(63 19)
(64 6)
(65 64)
(4 65)
(19 66)
(66 67)
(67 17)
(68 4)
(69 68)
(11 69)
(17 70)
(70 71)
(71 24)
(72 11)
(73 72)
(7 73)
(24 74)
(74 75)
(75 20)
(76 8)
(77 76)
(7 77)
(21 78)
(78 79)
(79 20)
(80 21)
(81 80)
(22 81)
(8 82)
(82 83)
(83 9)
(84 22)
(85 84)
(25 85)
(9 86)
(86 87)
(87 12)
(25 88)
(88 89)
(90 12)
(91 90)
(89 23)
(10 91)
)

// concaveStart mixedStart nonFeatureStart
0 0 28
// internalStart flatStart openStart multipleStart
9 21 21 141
// normals

147
(
(0 1 0)
(0 1 0)
(-0 1 0)
(0 1 0)
(0 1 0)
(-0 1 0)
(0 1 0)
(-0 1 0)
(-0 1 0)
(0 1 0)
(-0 1 0)
(0 1 0)
(-0 1 0)
(0 1 0)
(0 1 0)
(-0 1 0)
(0 1 0)
(0 1 0)
(-0 1 0)
(-0 1 0)
(-0 1 0)
(-0 1 0)
(0 1 0)
(-0 1 0)
(0 1 0)
(-0 1 0)
(-0 1 0)
(0 1 0)
(-0.04913822 0 0.998792)
(-0.04913906 0 0.9987919)
(-0.04913906 -0 0.9987919)
(-0.04913907 0 0.9987919)
(-0.04913906 0 0.9987919)
(-0.04913906 0 0.9987919)
(0 -0 1)
(0 -0 1)
(0 -0 1)
(-0 -0 1)
(0 0 1)
(0 0 1)
(-1 0 0)
(-1 0 0)
(-1 0 0)
(-1 0 0)
(-1 0 0)
(-1 0 0)
(-2.652854e-07 3.327926e-05 -1)
(0 0 -1)
(0 0 -1)
(0 0 -1)
(2.652853e-07 0 -1)
(0 0 -1)
(-0.3052079 0 0.9522857)
(-0.3052082 0 0.9522856)
(-0.3052072 0 0.952286)
(-0.3052099 0 0.9522851)
(-0.3052082 0 0.9522856)
(-0.3052091 0 0.9522854)
(-2.583432e-06 3.178914e-05 1)
(0 -0 1)
(-0 0 1)
(0 -0 1)
(0 0 1)
(2.583432e-06 0 1)
(-0.2758064 0 0.9612132)
(-0.2758073 0 0.961213)
(-0.2758084 0 0.9612126)
(-0.2758102 0 0.9612121)
(-0.2758073 0 0.961213)
(-0.2758084 0 0.9612126)
(-0 0 1)
(0 -0 1)
(-0 0 1)
(0 -0 1)
(0 0 1)
(0 0 1)
(-0.3272014 0 0.9449546)
(-0.3272035 0 0.9449539)
(-0.3272014 0 0.9449546)
(-0.3272014 0 0.9449546)
(-0.3272035 0 0.9449539)
(-0.3272014 0 0.9449546)
(-0 0 1)
(0 -0 1)
(-0 0 1)
(0 -0 1)
(0 0 1)
(0 0 1)
(0.481629 0 -0.8763752)
(0.4816261 0 -0.8763768)
(0.4816277 0 -0.8763759)
(0.481629 0 -0.8763752)
(0.4816261 0 -0.8763768)
(0.4816277 0 -0.8763759)
(0.08072215 0 -0.9967366)
(0.08072263 0 -0.9967366)
(0.08072477 0 -0.9967364)
(0.08072215 0 -0.9967366)
(0.08072263 0 -0.9967366)
(0.08072329 0 -0.9967366)
(0.9999366 -6.357426e-05 -0.01125803)
(0.9999507 0 -0.009933696)
(0.9999439 0 -0.01059543)
(0.9999439 0 -0.01059587)
(0.9999507 0 -0.009933696)
(0.9999439 0 -0.01059543)
(0 0 1)
(0 -0 1)
(0 -0 1)
(0 -0 1)
(0 0 1)
(0 0 1)
(-0.04913907 -3.167697e-05 0.9987919)
(0 3.327926e-05 -1)
(-0.04913907 0 0.9987919)
(0 0 -1)
(0 0 -1)
(-0.3052079 -3.169136e-05 0.9522857)
(0 0 -1)
(-0.3052079 0 0.9522857)
(0 0 -1)
(0.08072329 -5.132248e-06 -0.9967366)
(0.08072329 0 -0.9967366)
(0.9999439 0 -0.01059587)
(0.08072329 0 -0.9967366)
(0.9999439 0 -0.01059587)
(-1 0 0)
(0 -0 1)
(-1 0 -0)
(0 -0 1)
(-1 -0 -0)
(0 0 1)
(-1 0 0)
(0 0 1)
(-1 0 0)
(0 0 1)
(0 0 1)
(0.4816277 0 -0.8763759)
(0 0 1)
(0.4816277 0 -0.8763759)
(-0 0 1)
(0.4816277 0 -0.8763759)
(0.9999439 0 -0.01059543)
(0.9999439 0 -0.01059543)
(0 0 1)
(0.9999439 0 -0.01059543)
(0 0 1)
)

// normal volume types

147
(
0
0
0
0
0
0
0
0
0
0
0
0
0
0
0
0
0
0
0
0
0
0
0
0
0
0
0
0
0
0
0
0
0
0
0
0
0
0
0
0
0
0
0
0
0
0
0
0
0
0
0
0
0
0
0
0
0
0
0
0
0
0
0
0
0
0
0
0
0
0
0
0
0
0
0
0
0
0
0
0
0
0
0
0
0
0
0
0
0
0
0
0
0
0
0
0
0
0
0
0
0
0
0
0
0
0
0
0
0
0
0
0
0
0
0
0
0
0
0
0
0
0
0
0
0
0
0
0
0
0
0
0
0
0
0
0
0
0
0
0
0
0
0
0
0
0
0
)

// normalDirections

141
(
2{1}
2{1}
2{1}
2{1}
2{1}
2{1}
2(1 -1)
2(1 -1)
2(1 -1)
2(1 -1)
2(1 -1)
2(1 -1)
2{1}
2{1}
2{1}
2{1}
2{1}
2{1}
2{1}
2{1}
2{1}
1(1)
1(1)
1(1)
1(1)
1(1)
1(1)
1(1)
1(1)
1(1)
1(1)
1(1)
1(1)
1(1)
1(1)
1(1)
1(1)
1(1)
1(1)
1(1)
1(1)
1(1)
1(1)
1(1)
1(1)
1(1)
1(1)
1(1)
1(1)
1(1)
1(1)
1(1)
1(1)
1(1)
1(1)
1(1)
1(1)
1(1)
1(1)
1(1)
1(1)
1(1)
1(1)
1(1)
1(1)
1(1)
1(1)
1(1)
1(1)
1(1)
1(1)
1(1)
1(1)
1(1)
1(1)
1(1)
1(1)
1(1)
1(1)
1(1)
1(1)
1(1)
1(1)
1(1)
1(1)
1(1)
1(1)
1(1)
1(1)
1(1)
1(1)
1(1)
1(1)
1(1)
1(1)
1(1)
1(1)
1(1)
1(1)
1(1)
1(1)
1(1)
1(1)
1(1)
1(1)
1(1)
1(1)
1(1)
1(1)
1(1)
1(1)
1(1)
1(1)
1(1)
1(1)
1(1)
1(1)
1(1)
1(1)
1(1)
1(1)
1(1)
1(1)
1(1)
1(1)
1(1)
1(1)
1(1)
1(1)
1(1)
1(1)
1(1)
1(1)
1(1)
1(1)
1(1)
1(1)
1(1)
1(1)
1(1)
1(1)
)

// edgeNormals

141
(
2(112 113)
2(114 115)
2(31 116)
2(46 117)
2(118 119)
2(120 52)
2(121 100)
2(122 123)
2(124 125)
2(36 126)
2(127 128)
2(129 40)
2(130 131)
2(132 133)
2(134 135)
2(136 137)
2(138 139)
2(140 141)
2(142 106)
2(143 144)
2(145 146)
1(0)
1(1)
1(2)
1(3)
1(4)
1(4)
1(5)
1(5)
1(6)
1(7)
1(8)
1(9)
1(10)
1(11)
1(11)
1(12)
1(13)
1(13)
1(14)
1(15)
1(16)
1(17)
1(17)
1(18)
1(18)
1(19)
1(20)
1(21)
1(22)
1(23)
1(24)
1(24)
1(25)
1(26)
1(26)
1(27)
1(28)
1(29)
1(30)
1(31)
1(32)
1(33)
1(34)
1(35)
1(36)
1(37)
1(38)
1(39)
1(40)
1(41)
1(42)
1(43)
1(44)
1(45)
1(46)
1(47)
1(48)
1(49)
1(50)
1(51)
1(52)
1(53)
1(54)
1(55)
1(56)
1(57)
1(58)
1(59)
1(60)
1(61)
1(62)
1(63)
1(64)
1(65)
1(66)
1(67)
1(68)
1(69)
1(70)
1(71)
1(72)
1(73)
1(74)
1(75)
1(76)
1(77)
1(78)
1(79)
1(80)
1(81)
1(82)
1(83)
1(84)
1(85)
1(86)
1(87)
1(88)
1(89)
1(90)
1(91)
1(92)
1(93)
1(94)
1(95)
1(96)
1(97)
1(98)
1(99)
1(100)
1(101)
1(102)
1(103)
1(104)
1(105)
1(106)
1(107)
1(108)
1(109)
1(110)
1(111)
)

// featurePointNormals

28
(
3(31 116 1)
3(120 52 4)
3(4 60 64)
3(36 126 3)
3(5 72 76)
3(4 54 58)
3(5 66 70)
3(136 137 7)
3(7 88 97)
3(124 125 8)
3(134 135 9)
3(10 78 82)
3(145 146 11)
3(13 33 34)
3(46 117 17)
3(17 63 67)
3(129 40 16)
3(18 75 79)
3(17 57 61)
3(18 69 73)
3(140 141 20)
3(20 91 94)
3(121 100 21)
3(130 131 22)
3(23 81 85)
3(142 106 24)
3(26 30 37)
3(112 113 26)
)

// featurePointEdges

28
(
5(2 22 23 60 80)
5(5 25 29 77 81)
4(26 28 89 93)
5(9 24 32 65 71)
4(27 36 101 105)
4(25 26 83 87)
4(27 28 95 99)
5(15 30 33 113 119)
4(30 31 117 126)
5(8 31 34 128 132)
5(14 32 35 74 140)
4(33 36 107 111)
5(20 34 35 134 137)
4(37 38 62 63)
5(3 42 46 75 84)
4(43 45 92 96)
5(11 41 49 68 69)
4(44 53 104 108)
4(42 43 86 90)
4(44 45 98 102)
5(17 47 50 116 122)
4(47 48 120 123)
5(6 48 51 125 129)
5(12 49 52 73 139)
4(50 53 110 114)
5(18 51 52 131 135)
4(54 55 59 66)
5(0 54 56 57 79)
)

// regionEdges

120
(
21
22
23
24
25
26
27
28
29
30
31
32
33
34
35
36
37
38
39
40
41
42
43
44
45
46
47
48
49
50
51
52
53
54
55
56
57
58
59
60
61
62
63
64
65
66
67
68
69
70
71
72
73
74
75
76
77
78
79
80
81
82
83
84
85
86
87
88
89
90
91
92
93
94
95
96
97
98
99
100
101
102
103
104
105
106
107
108
109
110
111
112
113
114
115
116
117
118
119
120
121
122
123
124
125
126
127
128
129
130
131
132
133
134
135
136
137
138
139
140
)



// ************************************************************************* //
