/*---------------------------------------------------------------------------*\
| =========                 |                                                 |
| \\      /  F ield         | OpenFOAM: The Open Source CFD Toolbox           |
|  \\    /   O peration     | Version:  1.3                                   |
|   \\  /    A nd           | Web:      http://www.openfoam.org               |
|    \\/     M anipulation  |                                                 |
\*---------------------------------------------------------------------------*/
FoamFile
{
    version         2.0;
    format          ascii;
    location        "system";
    class           dictionary;
    object          controlDict;
}

// * * * * * * * * * * * * * * * * * * * * * * * * * * * * * * * * * * * * * //

application     olaFlow;

startFrom       latestTime;

startTime       0;

stopAt          endTime;

endTime         20;

deltaT          0.001;

writeControl    adjustableRunTime;

writeInterval   0.1;

purgeWrite      0;

writeFormat     ascii;

writePrecision  6;

compression     off;

timeFormat      general;

timePrecision   6;

runTimeModifiable yes;

adjustTimeStep  yes;

maxCo           0.45;
maxAlphaCo	0.45;

maxDeltaT       0.05;

functions
{

    points
    {
        type            sets;
        libs            ("libsampling.so");
        enabled         true; // Mettre à false pour désactiver les sondes

        // Contrôle d'écriture :
        //  - timeStep   : pas de temps
        //  - adjustable : temps (si pas de temps adaptatif)
        //  - runTime    : temps (si pas de temps constant)
        writeControl     timeStep;
        writeInterval    2;
        fixedLocations false;
        interpolationScheme cellPoint;
        setFormat       raw;
        sets
        (
            point1
            {
                type cloud;
                axis distance;
                points
                (
                    (17.5 0 0.8)
                    (19.3 0 0.95)
                );
            }
        );
        fields
        (
            p
        );
    }
}

// ************************************************************************* //
